<?xml version="1.0" encoding="UTF-8"?>

<!-- generated on 2025-04-16 01:45:38 by Eclipse SUMO netedit Version 1.22.0
<neteditConfiguration xmlns:xsi="http://www.w3.org/2001/XMLSchema-instance" xsi:noNamespaceSchemaLocation="http://sumo.dlr.de/xsd/neteditConfiguration.xsd">

    <input>
        <sumo-net-file value="E:\python\trafik4\mymap.net.xml"/>
    </input>

    <output>
        <output-file value="E:\python\trafik4\mymap.net.xml"/>
    </output>

    <processing>
        <offset.disable-normalization value="true"/>
    </processing>

    <junctions>
        <no-turnarounds value="true"/>
    </junctions>

    <netedit>
        <new-network value="false"/>
    </netedit>

</neteditConfiguration>
-->

<net version="1.20" junctionCornerDetail="5" limitTurnSpeed="5.50" xmlns:xsi="http://www.w3.org/2001/XMLSchema-instance" xsi:noNamespaceSchemaLocation="http://sumo.dlr.de/xsd/net_file.xsd">

    <location netOffset="0.00,0.00" convBoundary="-90.10,-502.77,223.98,198.95" origBoundary="10000000000.00,10000000000.00,-10000000000.00,-10000000000.00" projParameter="!"/>

    <edge id=":J1_0" function="internal">
        <lane id=":J1_0_0" index="0" speed="6.89" length="6.47" shape="44.53,151.07 44.21,149.39 43.51,147.99 42.45,146.88 41.02,146.04"/>
    </edge>
    <edge id=":J1_1" function="internal">
        <lane id=":J1_1_0" index="0" speed="8.22" length="10.07" shape="44.53,151.07 44.65,148.44 45.44,146.17 46.91,144.26 49.03,142.72"/>
    </edge>
    <edge id=":J1_2" function="internal">
        <lane id=":J1_2_0" index="0" speed="6.68" length="6.41" shape="50.59,145.52 49.23,146.50 48.30,147.71 47.80,149.16 47.72,150.83"/>
    </edge>
    <edge id=":J1_3" function="internal">
        <lane id=":J1_3_0" index="0" speed="9.39" length="9.94" shape="50.59,145.52 48.22,146.53 45.83,146.95 43.43,146.79 41.02,146.04"/>
    </edge>
    <edge id=":J1_4" function="internal">
        <lane id=":J1_4_0" index="0" speed="7.97" length="7.01" shape="42.28,143.10 43.98,143.63 45.68,143.74 47.36,143.44 49.03,142.72"/>
    </edge>
    <edge id=":J1_5" function="internal">
        <lane id=":J1_5_0" index="0" speed="8.41" length="9.97" shape="42.28,143.10 44.51,144.40 46.15,146.12 47.22,148.26 47.72,150.83"/>
    </edge>
    <edge id=":J10_0" function="internal">
        <lane id=":J10_0_0" index="0" speed="7.60" length="9.14" shape="69.79,104.62 69.42,102.40 68.41,100.54 66.76,99.05 64.47,97.92"/>
    </edge>
    <edge id=":J10_1" function="internal">
        <lane id=":J10_1_0" index="0" speed="13.89" length="13.08" shape="69.79,104.62 69.89,101.17 70.37,98.12 71.25,95.16 72.57,91.96"/>
    </edge>
    <edge id=":J10_2" function="internal">
        <lane id=":J10_2_0" index="0" speed="13.89" length="11.68" shape="75.49,93.28 74.21,96.26 73.43,98.75 73.05,101.33 72.99,104.56"/>
    </edge>
    <edge id=":J10_3" function="internal">
        <lane id=":J10_3_0" index="0" speed="8.02" length="3.64" shape="75.49,93.28 73.54,96.35"/>
    </edge>
    <edge id=":J10_6" function="internal">
        <lane id=":J10_6_0" index="0" speed="8.02" length="9.77" shape="73.54,96.35 71.05,98.15 68.03,98.67 64.47,97.92"/>
    </edge>
    <edge id=":J10_4" function="internal">
        <lane id=":J10_4_0" index="0" speed="6.52" length="8.53" shape="65.56,94.91 67.83,95.39 69.75,95.06 71.33,93.92 72.57,91.96"/>
    </edge>
    <edge id=":J10_5" function="internal">
        <lane id=":J10_5_0" index="0" speed="8.96" length="13.02" shape="65.56,94.91 68.76,96.51 71.07,98.65 72.48,101.33 72.99,104.56"/>
    </edge>
    <edge id=":J11_0" function="internal">
        <lane id=":J11_0_0" index="0" speed="13.89" length="11.78" shape="78.90,133.53 75.64,133.57 73.01,133.88 70.49,134.66 67.59,136.09"/>
    </edge>
    <edge id=":J11_1" function="internal">
        <lane id=":J11_1_0" index="0" speed="8.01" length="3.80" shape="78.90,133.53 75.14,132.96"/>
    </edge>
    <edge id=":J11_6" function="internal">
        <lane id=":J11_6_0" index="0" speed="8.01" length="10.12" shape="75.14,132.96 72.43,131.33 70.77,128.64 70.17,124.89"/>
    </edge>
    <edge id=":J11_2" function="internal">
        <lane id=":J11_2_0" index="0" speed="6.51" length="8.86" shape="73.37,124.83 73.75,127.22 74.81,128.93 76.53,129.97 78.92,130.33"/>
    </edge>
    <edge id=":J11_3" function="internal">
        <lane id=":J11_3_0" index="0" speed="9.68" length="13.34" shape="73.37,124.83 73.06,128.52 72.00,131.63 70.17,134.15 67.59,136.09"/>
    </edge>
    <edge id=":J11_4" function="internal">
        <lane id=":J11_4_0" index="0" speed="8.39" length="9.86" shape="66.03,133.29 67.89,131.88 69.19,130.01 69.95,127.68 70.17,124.89"/>
    </edge>
    <edge id=":J11_5" function="internal">
        <lane id=":J11_5_0" index="0" speed="13.89" length="13.39" shape="66.03,133.29 69.19,131.80 72.24,130.89 75.42,130.43 78.92,130.33"/>
    </edge>
    <edge id=":J13_0" function="internal">
        <lane id=":J13_0_0" index="0" speed="6.54" length="8.84" shape="50.22,-39.57 47.85,-39.14 46.15,-38.06 45.13,-36.33 44.78,-33.95"/>
    </edge>
    <edge id=":J13_1" function="internal">
        <lane id=":J13_1_0" index="0" speed="8.01" length="13.86" shape="50.22,-39.57 46.46,-39.96 43.69,-41.45 41.91,-44.04 41.11,-47.74"/>
    </edge>
    <edge id=":J13_2" function="internal">
        <lane id=":J13_2_0" index="0" speed="6.51" length="8.82" shape="44.30,-47.96 44.81,-45.61 45.94,-43.96 47.71,-43.01 50.10,-42.76"/>
    </edge>
    <edge id=":J13_3" function="internal">
        <lane id=":J13_3_0" index="0" speed="13.89" length="14.02" shape="44.30,-47.96 44.78,-33.95"/>
    </edge>
    <edge id=":J13_4" function="internal">
        <lane id=":J13_4_0" index="0" speed="13.89" length="13.78" shape="41.58,-33.96 41.11,-47.74"/>
    </edge>
    <edge id=":J13_5" function="internal">
        <lane id=":J13_5_0" index="0" speed="8.03" length="3.77" shape="41.58,-33.96 42.12,-37.69"/>
    </edge>
    <edge id=":J13_6" function="internal">
        <lane id=":J13_6_0" index="0" speed="8.03" length="10.08" shape="42.12,-37.69 43.72,-40.40 46.38,-42.09 50.10,-42.76"/>
    </edge>
    <edge id=":J14_0" function="internal">
        <lane id=":J14_0_0" index="0" speed="6.30" length="9.04" shape="134.55,-23.13 132.22,-24.07 130.22,-23.99 128.54,-22.89 127.18,-20.77"/>
    </edge>
    <edge id=":J14_1" function="internal">
        <lane id=":J14_1_0" index="0" speed="13.89" length="14.70" shape="134.55,-23.13 131.31,-24.91 128.03,-26.51 124.67,-27.93 121.20,-29.21"/>
    </edge>
    <edge id=":J14_2" function="internal">
        <lane id=":J14_2_0" index="0" speed="8.25" length="4.02" shape="134.55,-23.13 131.37,-25.59"/>
    </edge>
    <edge id=":J14_12" function="internal">
        <lane id=":J14_12_0" index="0" speed="8.25" length="10.37" shape="131.37,-25.59 129.63,-28.43 129.34,-31.66 130.50,-35.27"/>
    </edge>
    <edge id=":J14_3" function="internal">
        <lane id=":J14_3_0" index="0" speed="6.81" length="9.48" shape="133.37,-33.86 132.63,-31.51 132.85,-29.40 134.02,-27.53 136.16,-25.90"/>
    </edge>
    <edge id=":J14_4" function="internal">
        <lane id=":J14_4_0" index="0" speed="13.89" length="14.47" shape="133.37,-33.86 127.18,-20.77"/>
    </edge>
    <edge id=":J14_5" function="internal">
        <lane id=":J14_5_0" index="0" speed="8.48" length="3.79" shape="133.37,-33.86 131.21,-30.74"/>
    </edge>
    <edge id=":J14_13" function="internal">
        <lane id=":J14_13_0" index="0" speed="8.48" length="10.68" shape="131.21,-30.74 128.47,-28.93 125.13,-28.42 121.20,-29.21"/>
    </edge>
    <edge id=":J14_6" function="internal">
        <lane id=":J14_6_0" index="0" speed="7.07" length="9.77" shape="122.23,-32.24 124.92,-31.69 127.19,-32.01 129.05,-33.20 130.50,-35.27"/>
    </edge>
    <edge id=":J14_7" function="internal">
        <lane id=":J14_7_0" index="0" speed="13.89" length="15.33" shape="122.23,-32.24 125.80,-30.92 129.35,-29.40 132.82,-27.72 136.16,-25.90"/>
    </edge>
    <edge id=":J14_8" function="internal">
        <lane id=":J14_8_0" index="0" speed="7.84" length="4.36" shape="122.23,-32.24 125.84,-30.40 126.03,-30.15"/>
    </edge>
    <edge id=":J14_14" function="internal">
        <lane id=":J14_14_0" index="0" speed="7.84" length="10.22" shape="126.03,-30.15 127.86,-27.87 128.31,-24.66 127.18,-20.77"/>
    </edge>
    <edge id=":J14_9" function="internal">
        <lane id=":J14_9_0" index="0" speed="6.31" length="9.05" shape="124.27,-22.09 124.97,-24.51 124.69,-26.50 123.43,-28.07 121.20,-29.21"/>
    </edge>
    <edge id=":J14_10" function="internal">
        <lane id=":J14_10_0" index="0" speed="13.89" length="14.58" shape="124.27,-22.09 130.50,-35.27"/>
    </edge>
    <edge id=":J14_11" function="internal">
        <lane id=":J14_11_0" index="0" speed="7.83" length="4.28" shape="124.27,-22.09 126.45,-25.51 126.64,-25.63"/>
    </edge>
    <edge id=":J14_15" function="internal">
        <lane id=":J14_15_0" index="0" speed="7.83" length="10.31" shape="126.64,-25.63 129.16,-27.28 132.40,-27.41 136.16,-25.90"/>
    </edge>
    <edge id=":J15_0" function="internal">
        <lane id=":J15_0_0" index="0" speed="6.65" length="6.65" shape="35.86,-121.61 35.52,-123.32 34.77,-124.71 33.61,-125.78 32.03,-126.53"/>
    </edge>
    <edge id=":J15_1" function="internal">
        <lane id=":J15_1_0" index="0" speed="8.87" length="10.11" shape="35.86,-121.61 35.96,-124.29 36.64,-126.67 37.91,-128.72 39.77,-130.45"/>
    </edge>
    <edge id=":J15_2" function="internal">
        <lane id=":J15_2_0" index="0" speed="7.41" length="6.87" shape="41.66,-127.87 40.41,-126.70 39.57,-125.31 39.11,-123.68 39.06,-121.83"/>
    </edge>
    <edge id=":J15_3" function="internal">
        <lane id=":J15_3_0" index="0" speed="9.23" length="10.10" shape="41.66,-127.87 39.46,-126.62 37.12,-125.98 34.65,-125.95 32.03,-126.53"/>
    </edge>
    <edge id=":J15_4" function="internal">
        <lane id=":J15_4_0" index="0" speed="7.80" length="7.06" shape="33.04,-129.57 34.88,-129.15 36.62,-129.16 38.25,-129.59 39.77,-130.45"/>
    </edge>
    <edge id=":J15_5" function="internal">
        <lane id=":J15_5_0" index="0" speed="8.18" length="2.74" shape="33.04,-129.57 35.51,-128.39"/>
    </edge>
    <edge id=":J15_6" function="internal">
        <lane id=":J15_6_0" index="0" speed="8.18" length="7.71" shape="35.51,-128.39 37.34,-126.71 38.52,-124.52 39.06,-121.83"/>
    </edge>
    <edge id=":J17_0" function="internal">
        <lane id=":J17_0_0" index="0" speed="13.89" length="12.05" shape="92.83,-38.90 89.68,-39.89 87.01,-40.50 84.29,-40.76 81.00,-40.74"/>
    </edge>
    <edge id=":J17_1" function="internal">
        <lane id=":J17_1_0" index="0" speed="8.02" length="3.64" shape="92.83,-38.90 89.58,-40.54"/>
    </edge>
    <edge id=":J17_6" function="internal">
        <lane id=":J17_6_0" index="0" speed="8.02" length="9.78" shape="89.58,-40.54 87.55,-42.85 86.74,-45.81 87.15,-49.43"/>
    </edge>
    <edge id=":J17_2" function="internal">
        <lane id=":J17_2_0" index="0" speed="6.52" length="8.54" shape="90.25,-48.63 89.99,-46.33 90.50,-44.44 91.79,-42.97 93.86,-41.93"/>
    </edge>
    <edge id=":J17_3" function="internal">
        <lane id=":J17_3_0" index="0" speed="8.68" length="13.14" shape="90.25,-48.63 88.93,-45.28 86.95,-42.85 84.31,-41.34 81.00,-40.74"/>
    </edge>
    <edge id=":J17_4" function="internal">
        <lane id=":J17_4_0" index="0" speed="7.28" length="9.01" shape="80.88,-43.94 83.11,-44.35 84.90,-45.40 86.24,-47.10 87.15,-49.43"/>
    </edge>
    <edge id=":J17_5" function="internal">
        <lane id=":J17_5_0" index="0" speed="13.89" length="13.22" shape="80.88,-43.94 84.35,-43.93 87.47,-43.61 90.54,-42.95 93.86,-41.93"/>
    </edge>
    <edge id=":J18_0" function="internal">
        <lane id=":J18_0_0" index="0" speed="6.08" length="9.06" shape="107.06,-90.29 104.64,-91.13 102.69,-90.90 101.22,-89.60 100.22,-87.23"/>
    </edge>
    <edge id=":J18_1" function="internal">
        <lane id=":J18_1_0" index="0" speed="9.97" length="14.35" shape="107.06,-90.29 103.57,-92.52 101.07,-95.10 99.57,-98.04 99.07,-101.32"/>
    </edge>
    <edge id=":J18_2" function="internal">
        <lane id=":J18_2_0" index="0" speed="8.73" length="10.85" shape="102.27,-101.33 102.66,-98.95 103.84,-96.79 105.79,-94.86 108.53,-93.14"/>
    </edge>
    <edge id=":J18_3" function="internal">
        <lane id=":J18_3_0" index="0" speed="13.89" length="14.29" shape="102.27,-101.33 102.13,-97.70 101.72,-94.22 101.07,-90.77 100.22,-87.23"/>
    </edge>
    <edge id=":J18_4" function="internal">
        <lane id=":J18_4_0" index="0" speed="13.89" length="13.48" shape="97.13,-88.03 97.96,-91.44 98.57,-94.62 98.94,-97.82 99.07,-101.32"/>
    </edge>
    <edge id=":J18_5" function="internal">
        <lane id=":J18_5_0" index="0" speed="7.66" length="4.15" shape="97.13,-88.03 98.73,-91.85"/>
    </edge>
    <edge id=":J18_6" function="internal">
        <lane id=":J18_6_0" index="0" speed="7.66" length="10.97" shape="98.73,-91.85 98.78,-91.98 101.23,-94.15 104.48,-94.54 108.53,-93.14"/>
    </edge>
    <edge id=":J19_0" function="internal">
        <lane id=":J19_0_0" index="0" speed="6.65" length="9.11" shape="155.36,-65.96 152.99,-66.60 150.94,-66.35 149.21,-65.18 147.81,-63.11"/>
    </edge>
    <edge id=":J19_1" function="internal">
        <lane id=":J19_1_0" index="0" speed="13.89" length="14.95" shape="155.36,-65.96 141.86,-72.38"/>
    </edge>
    <edge id=":J19_2" function="internal">
        <lane id=":J19_2_0" index="0" speed="8.47" length="4.21" shape="155.36,-65.96 152.13,-67.99 151.90,-68.31"/>
    </edge>
    <edge id=":J19_12" function="internal">
        <lane id=":J19_12_0" index="0" speed="8.47" length="10.50" shape="151.90,-68.31 150.21,-70.70 149.62,-74.09 150.33,-78.16"/>
    </edge>
    <edge id=":J19_3" function="internal">
        <lane id=":J19_3_0" index="0" speed="7.07" length="9.95" shape="153.39,-77.21 152.88,-74.41 153.25,-72.09 154.50,-70.25 156.64,-68.89"/>
    </edge>
    <edge id=":J19_4" function="internal">
        <lane id=":J19_4_0" index="0" speed="13.89" length="15.17" shape="153.39,-77.21 152.20,-73.62 150.87,-70.05 149.40,-66.54 147.81,-63.11"/>
    </edge>
    <edge id=":J19_5" function="internal">
        <lane id=":J19_5_0" index="0" speed="7.72" length="14.89" shape="153.39,-77.21 151.58,-73.43 149.06,-71.37 145.82,-71.02 141.86,-72.38"/>
    </edge>
    <edge id=":J19_6" function="internal">
        <lane id=":J19_6_0" index="0" speed="6.16" length="9.05" shape="143.33,-75.23 145.73,-74.40 147.70,-74.61 149.24,-75.86 150.33,-78.16"/>
    </edge>
    <edge id=":J19_7" function="internal">
        <lane id=":J19_7_0" index="0" speed="13.89" length="14.74" shape="143.33,-75.23 156.64,-68.89"/>
    </edge>
    <edge id=":J19_8" function="internal">
        <lane id=":J19_8_0" index="0" speed="8.18" length="4.15" shape="143.33,-75.23 146.73,-72.86"/>
    </edge>
    <edge id=":J19_13" function="internal">
        <lane id=":J19_13_0" index="0" speed="8.18" length="10.52" shape="146.73,-72.86 148.62,-70.05 148.98,-66.80 147.81,-63.11"/>
    </edge>
    <edge id=":J19_9" function="internal">
        <lane id=":J19_9_0" index="0" speed="6.72" length="9.57" shape="144.94,-64.53 145.67,-66.90 145.40,-68.99 144.13,-70.82 141.86,-72.38"/>
    </edge>
    <edge id=":J19_10" function="internal">
        <lane id=":J19_10_0" index="0" speed="13.89" length="14.67" shape="144.94,-64.53 146.51,-67.88 147.91,-71.24 149.17,-74.65 150.33,-78.16"/>
    </edge>
    <edge id=":J19_11" function="internal">
        <lane id=":J19_11_0" index="0" speed="8.12" length="14.09" shape="144.94,-64.53 147.11,-67.72 149.78,-69.51 152.96,-69.90 156.64,-68.89"/>
    </edge>
    <edge id=":J2_0" function="internal">
        <lane id=":J2_0_0" index="0" speed="6.60" length="3.85" shape="27.26,140.10 26.40,139.63 25.68,139.02 25.11,138.27 24.68,137.39"/>
    </edge>
    <edge id=":J2_1" function="internal">
        <lane id=":J2_1_0" index="0" speed="4.18" length="1.28" shape="27.67,136.26 27.81,136.55 28.01,136.80 28.25,137.00 28.53,137.16"/>
    </edge>
    <edge id=":J20_0" function="internal">
        <lane id=":J20_0_0" index="0" speed="6.93" length="10.12" shape="98.96,-154.96 98.61,-157.98 97.56,-160.15 95.83,-161.49 93.40,-161.99"/>
    </edge>
    <edge id=":J20_1" function="internal">
        <lane id=":J20_1_0" index="0" speed="7.55" length="15.56" shape="98.96,-154.96 99.58,-159.41 101.47,-162.11 104.62,-163.07 109.04,-162.30"/>
    </edge>
    <edge id=":J20_2" function="internal">
        <lane id=":J20_2_0" index="0" speed="5.93" length="9.10" shape="108.05,-159.26 105.47,-159.71 103.63,-159.15 102.52,-157.57 102.16,-154.97"/>
    </edge>
    <edge id=":J20_3" function="internal">
        <lane id=":J20_3_0" index="0" speed="13.89" length="14.95" shape="108.05,-159.26 104.46,-160.32 100.81,-161.15 97.13,-161.72 93.40,-161.99"/>
    </edge>
    <edge id=":J20_4" function="internal">
        <lane id=":J20_4_0" index="0" speed="13.89" length="15.86" shape="93.49,-165.19 97.36,-164.90 101.36,-164.27 105.31,-163.38 109.04,-162.30"/>
    </edge>
    <edge id=":J20_5" function="internal">
        <lane id=":J20_5_0" index="0" speed="8.35" length="4.18" shape="93.49,-165.19 97.28,-164.46 97.54,-164.27"/>
    </edge>
    <edge id=":J20_6" function="internal">
        <lane id=":J20_6_0" index="0" speed="8.35" length="10.98" shape="97.54,-164.27 99.98,-162.51 101.61,-159.35 102.16,-154.97"/>
    </edge>
    <edge id=":J21_0" function="internal">
        <lane id=":J21_0_0" index="0" speed="6.10" length="9.06" shape="177.54,-135.05 175.15,-135.97 173.19,-135.82 171.66,-134.58 170.55,-132.27"/>
    </edge>
    <edge id=":J21_1" function="internal">
        <lane id=":J21_1_0" index="0" speed="13.89" length="17.41" shape="177.54,-135.05 173.87,-136.93 169.69,-138.79 165.44,-140.49 161.54,-141.86"/>
    </edge>
    <edge id=":J21_2" function="internal">
        <lane id=":J21_2_0" index="0" speed="13.65" length="4.36" shape="177.54,-135.05 174.55,-137.48 174.23,-137.87"/>
    </edge>
    <edge id=":J21_12" function="internal">
        <lane id=":J21_12_0" index="0" speed="13.65" length="13.58" shape="174.23,-137.87 171.54,-141.14 168.99,-145.36 167.38,-149.47"/>
    </edge>
    <edge id=":J21_3" function="internal">
        <lane id=":J21_3_0" index="0" speed="12.73" length="15.55" shape="170.47,-150.27 171.88,-146.17 173.78,-142.73 176.20,-139.95 179.11,-137.83"/>
    </edge>
    <edge id=":J21_4" function="internal">
        <lane id=":J21_4_0" index="0" speed="13.89" length="18.15" shape="170.47,-150.27 171.23,-146.09 171.54,-141.25 171.35,-136.42 170.55,-132.27"/>
    </edge>
    <edge id=":J21_5" function="internal">
        <lane id=":J21_5_0" index="0" speed="7.39" length="5.92" shape="170.47,-150.27 171.12,-145.11 170.85,-144.45"/>
    </edge>
    <edge id=":J21_13" function="internal">
        <lane id=":J21_13_0" index="0" speed="7.39" length="11.22" shape="170.85,-144.45 169.84,-141.99 166.65,-140.91 161.54,-141.86"/>
    </edge>
    <edge id=":J21_6" function="internal">
        <lane id=":J21_6_0" index="0" speed="5.62" length="9.29" shape="162.53,-144.91 165.30,-144.39 167.03,-144.98 167.73,-146.67 167.38,-149.47"/>
    </edge>
    <edge id=":J21_7" function="internal">
        <lane id=":J21_7_0" index="0" speed="13.89" length="18.05" shape="162.53,-144.91 166.52,-143.49 170.97,-141.71 175.35,-139.76 179.11,-137.83"/>
    </edge>
    <edge id=":J21_8" function="internal">
        <lane id=":J21_8_0" index="0" speed="8.53" length="5.57" shape="162.53,-144.91 165.99,-142.92 167.05,-141.74"/>
    </edge>
    <edge id=":J21_14" function="internal">
        <lane id=":J21_14_0" index="0" speed="8.53" length="10.53" shape="167.05,-141.74 168.86,-139.72 170.57,-135.95 170.55,-132.27"/>
    </edge>
    <edge id=":J21_9" function="internal">
        <lane id=":J21_9_0" index="0" speed="7.40" length="11.88" shape="167.50,-133.22 167.84,-136.05 166.96,-138.43 164.86,-140.37 161.54,-141.86"/>
    </edge>
    <edge id=":J21_10" function="internal">
        <lane id=":J21_10_0" index="0" speed="13.89" length="16.41" shape="167.50,-133.22 168.28,-137.09 168.47,-141.32 168.13,-145.56 167.38,-149.47"/>
    </edge>
    <edge id=":J21_11" function="internal">
        <lane id=":J21_11_0" index="0" speed="7.67" length="2.79" shape="167.50,-133.22 168.70,-135.75"/>
    </edge>
    <edge id=":J21_15" function="internal">
        <lane id=":J21_15_0" index="0" speed="7.67" length="12.27" shape="168.70,-135.75 169.33,-137.07 171.88,-139.12 175.14,-139.37 179.11,-137.83"/>
    </edge>
    <edge id=":J24_0" function="internal">
        <lane id=":J24_0_0" index="0" speed="6.49" length="4.21" shape="15.64,-131.94 14.65,-132.38 13.83,-132.99 13.17,-133.77 12.68,-134.73"/>
    </edge>
    <edge id=":J24_1" function="internal">
        <lane id=":J24_1_0" index="0" speed="4.12" length="1.40" shape="15.65,-135.91 15.82,-135.59 16.04,-135.33 16.31,-135.12 16.64,-134.98"/>
    </edge>
    <edge id=":J25_0" function="internal">
        <lane id=":J25_0_0" index="0" speed="7.31" length="2.78" shape="6.40,-150.63 6.12,-151.40 5.99,-151.96 6.02,-152.53 6.16,-153.33"/>
    </edge>
    <edge id=":J25_1" function="internal">
        <lane id=":J25_1_0" index="0" speed="13.89" length="0.93" shape="9.30,-152.71 9.25,-152.44 9.24,-152.25 9.28,-152.06 9.38,-151.81"/>
    </edge>
    <edge id=":J26_0" function="internal">
        <lane id=":J26_0_0" index="0" speed="9.12" length="8.30" shape="16.31,-172.28 14.71,-171.08 13.44,-169.56 12.49,-167.72 11.87,-165.56"/>
    </edge>
    <edge id=":J26_1" function="internal">
        <lane id=":J26_1_0" index="0" speed="9.27" length="11.00" shape="16.31,-172.28 13.82,-171.20 11.23,-170.84 8.55,-171.19 5.78,-172.27"/>
    </edge>
    <edge id=":J26_2" function="internal">
        <lane id=":J26_2_0" index="0" speed="7.88" length="7.78" shape="7.23,-175.12 9.23,-174.34 11.13,-174.06 12.95,-174.29 14.68,-175.03"/>
    </edge>
    <edge id=":J26_3" function="internal">
        <lane id=":J26_3_0" index="0" speed="8.10" length="11.53" shape="7.23,-175.12 9.75,-173.39 11.36,-171.22 12.07,-168.61 11.87,-165.56"/>
    </edge>
    <edge id=":J26_4" function="internal">
        <lane id=":J26_4_0" index="0" speed="6.58" length="7.33" shape="8.73,-166.18 8.86,-168.13 8.41,-169.79 7.38,-171.17 5.78,-172.27"/>
    </edge>
    <edge id=":J26_5" function="internal">
        <lane id=":J26_5_0" index="0" speed="10.43" length="10.99" shape="8.73,-166.18 9.56,-169.01 10.82,-171.42 12.53,-173.43 14.68,-175.03"/>
    </edge>
    <edge id=":J27_0" function="internal">
        <lane id=":J27_0_0" index="0" speed="12.63" length="11.42" shape="37.15,-179.64 33.95,-180.04 31.41,-180.07 28.99,-179.49 26.15,-178.08"/>
    </edge>
    <edge id=":J27_1" function="internal">
        <lane id=":J27_1_0" index="0" speed="7.89" length="3.75" shape="37.15,-179.64 33.54,-180.67"/>
    </edge>
    <edge id=":J27_6" function="internal">
        <lane id=":J27_6_0" index="0" speed="7.89" length="10.69" shape="33.54,-180.67 33.31,-180.74 30.82,-182.79 29.69,-185.82 29.91,-189.80"/>
    </edge>
    <edge id=":J27_2" function="internal">
        <lane id=":J27_2_0" index="0" speed="6.37" length="9.04" shape="33.05,-189.17 32.91,-186.68 33.62,-184.79 35.18,-183.50 37.58,-182.82"/>
    </edge>
    <edge id=":J27_3" function="internal">
        <lane id=":J27_3_0" index="0" speed="11.51" length="13.44" shape="33.05,-189.17 32.02,-185.49 30.52,-182.42 28.57,-179.95 26.15,-178.08"/>
    </edge>
    <edge id=":J27_4" function="internal">
        <lane id=":J27_4_0" index="0" speed="10.34" length="10.76" shape="24.53,-180.84 26.39,-182.30 27.91,-184.28 29.08,-186.78 29.91,-189.80"/>
    </edge>
    <edge id=":J27_5" function="internal">
        <lane id=":J27_5_0" index="0" speed="13.69" length="13.48" shape="24.53,-180.84 27.69,-182.31 30.81,-183.03 34.06,-183.15 37.58,-182.82"/>
    </edge>
    <edge id=":J28_0" function="internal">
        <lane id=":J28_0_0" index="0" speed="4.06" length="1.56" shape="54.21,-176.64 53.99,-176.98 53.71,-177.24 53.38,-177.42 52.99,-177.51"/>
    </edge>
    <edge id=":J28_1" function="internal">
        <lane id=":J28_1_0" index="0" speed="6.37" length="4.68" shape="53.42,-180.68 54.59,-180.39 55.59,-179.86 56.41,-179.09 57.07,-178.07"/>
    </edge>
    <edge id=":J29_0" function="internal">
        <lane id=":J29_0_0" index="0" speed="6.52" length="8.51" shape="68.64,-162.73 66.35,-162.48 64.63,-161.56 63.48,-159.99 62.91,-157.75"/>
    </edge>
    <edge id=":J29_1" function="internal">
        <lane id=":J29_1_0" index="0" speed="9.53" length="12.80" shape="68.64,-162.73 65.14,-163.20 62.21,-164.37 59.87,-166.24 58.12,-168.82"/>
    </edge>
    <edge id=":J29_2" function="internal">
        <lane id=":J29_2_0" index="0" speed="8.21" length="9.35" shape="60.98,-170.25 62.24,-168.42 63.96,-167.09 66.12,-166.26 68.74,-165.93"/>
    </edge>
    <edge id=":J29_3" function="internal">
        <lane id=":J29_3_0" index="0" speed="13.89" length="12.86" shape="60.98,-170.25 62.30,-167.11 62.99,-164.19 63.16,-161.17 62.91,-157.75"/>
    </edge>
    <edge id=":J29_4" function="internal">
        <lane id=":J29_4_0" index="0" speed="13.89" length="11.07" shape="59.73,-158.10 60.03,-161.25 59.97,-163.65 59.39,-165.96 58.12,-168.82"/>
    </edge>
    <edge id=":J29_5" function="internal">
        <lane id=":J29_5_0" index="0" speed="8.02" length="3.63" shape="59.73,-158.10 60.63,-161.62"/>
    </edge>
    <edge id=":J29_6" function="internal">
        <lane id=":J29_6_0" index="0" speed="8.02" length="9.75" shape="60.63,-161.62 62.43,-164.09 65.13,-165.53 68.74,-165.93"/>
    </edge>
    <edge id=":J3_0" function="internal">
        <lane id=":J3_0_0" index="0" speed="6.59" length="7.24" shape="19.66,124.12 18.76,122.43 17.52,121.26 15.94,120.62 14.03,120.51"/>
    </edge>
    <edge id=":J3_1" function="internal">
        <lane id=":J3_1_0" index="0" speed="10.90" length="10.97" shape="19.66,124.12 18.87,121.33 18.64,118.62 18.96,115.99 19.84,113.43"/>
    </edge>
    <edge id=":J3_2" function="internal">
        <lane id=":J3_2_0" index="0" speed="9.61" length="8.45" shape="22.75,114.76 22.08,116.71 21.85,118.73 22.04,120.82 22.66,122.98"/>
    </edge>
    <edge id=":J3_3" function="internal">
        <lane id=":J3_3_0" index="0" speed="8.89" length="11.00" shape="22.75,114.76 21.29,117.11 19.36,118.85 16.93,119.98 14.03,120.51"/>
    </edge>
    <edge id=":J3_4" function="internal">
        <lane id=":J3_4_0" index="0" speed="7.47" length="7.56" shape="13.80,117.32 15.83,116.96 17.51,116.19 18.85,115.01 19.84,113.43"/>
    </edge>
    <edge id=":J3_5" function="internal">
        <lane id=":J3_5_0" index="0" speed="8.11" length="11.37" shape="13.80,117.32 16.81,117.50 19.28,118.50 21.23,120.33 22.66,122.98"/>
    </edge>
    <edge id=":J30_0" function="internal">
        <lane id=":J30_0_0" index="0" speed="6.56" length="3.98" shape="61.41,-144.23 61.20,-143.24 60.81,-142.35 60.23,-141.56 59.47,-140.89"/>
    </edge>
    <edge id=":J30_1" function="internal">
        <lane id=":J30_1_0" index="0" speed="4.16" length="1.33" shape="57.58,-143.47 57.83,-143.70 58.03,-143.96 58.16,-144.25 58.23,-144.59"/>
    </edge>
    <edge id=":J31_0" function="internal">
        <lane id=":J31_0_0" index="0" speed="6.11" length="9.06" shape="-68.25,-209.97 -70.67,-210.79 -72.63,-210.56 -74.12,-209.27 -75.14,-206.92"/>
    </edge>
    <edge id=":J31_1" function="internal">
        <lane id=":J31_1_0" index="0" speed="8.29" length="14.74" shape="-68.25,-209.97 -71.71,-212.34 -73.69,-215.14 -74.17,-218.39 -73.16,-222.08"/>
    </edge>
    <edge id=":J31_2" function="internal">
        <lane id=":J31_2_0" index="0" speed="6.86" length="9.76" shape="-70.24,-220.77 -70.88,-218.38 -70.51,-216.26 -69.15,-214.41 -66.79,-212.82"/>
    </edge>
    <edge id=":J31_3" function="internal">
        <lane id=":J31_3_0" index="0" speed="13.89" length="14.70" shape="-70.24,-220.77 -71.69,-217.36 -72.96,-213.94 -74.10,-210.48 -75.14,-206.92"/>
    </edge>
    <edge id=":J31_4" function="internal">
        <lane id=":J31_4_0" index="0" speed="13.89" length="15.19" shape="-78.22,-207.77 -77.16,-211.40 -75.97,-215.02 -74.63,-218.59 -73.16,-222.08"/>
    </edge>
    <edge id=":J31_5" function="internal">
        <lane id=":J31_5_0" index="0" speed="7.68" length="4.43" shape="-78.22,-207.77 -76.53,-211.66 -76.39,-211.78"/>
    </edge>
    <edge id=":J31_6" function="internal">
        <lane id=":J31_6_0" index="0" speed="7.68" length="10.60" shape="-76.39,-211.78 -74.06,-213.80 -70.82,-214.19 -66.79,-212.82"/>
    </edge>
    <edge id=":J34_0" function="internal">
        <lane id=":J34_0_0" index="0" speed="13.89" length="0.85" shape="65.37,-348.34 65.21,-348.15 65.11,-348.00 65.05,-347.84 65.00,-347.59"/>
    </edge>
    <edge id=":J34_1" function="internal">
        <lane id=":J34_1_0" index="0" speed="7.60" length="2.54" shape="61.86,-348.23 62.02,-348.96 62.20,-349.45 62.48,-349.88 62.97,-350.45"/>
    </edge>
    <edge id=":J36_0" function="internal">
        <lane id=":J36_0_0" index="0" speed="13.89" length="0.27" shape="121.31,-327.09 121.29,-327.17 121.27,-327.22 121.25,-327.27 121.22,-327.34"/>
    </edge>
    <edge id=":J36_1" function="internal">
        <lane id=":J36_1_0" index="0" speed="13.89" length="0.80" shape="124.15,-328.64 124.24,-328.43 124.30,-328.28 124.35,-328.12 124.41,-327.90"/>
    </edge>
    <edge id=":J37_0" function="internal">
        <lane id=":J37_0_0" index="0" speed="5.78" length="9.16" shape="98.89,-377.44 97.47,-379.73 95.84,-380.67 94.00,-380.26 91.96,-378.50"/>
    </edge>
    <edge id=":J37_1" function="internal">
        <lane id=":J37_1_0" index="0" speed="13.89" length="15.45" shape="98.89,-377.44 97.11,-380.83 94.85,-384.03 92.19,-386.87 89.17,-389.20"/>
    </edge>
    <edge id=":J37_2" function="internal">