<?xml version="1.0" encoding="UTF-8"?>

<!-- generated on 2025-05-01 18:36:40 by Eclipse SUMO netedit Version 1.22.0
-->

<routes xmlns:xsi="http://www.w3.org/2001/XMLSchema-instance" xsi:noNamespaceSchemaLocation="http://sumo.dlr.de/xsd/routes_file.xsd">
    <!-- Vehicles, persons and containers (sorted by depart) -->
    <flow id="f_0" begin="0.00" from="E0" to="E14" via="E1 E1.17 E7 E19 E11" end="3600.00" vehsPerHour="500"/>
    <flow id="f_1" begin="0.00" from="E0" to="E3" via="E2" number="1800" vehsPerHour="200"/>
    <flow id="f_10" begin="0.00" from="E26" to="E9" via="E26.149 E28 E15 E17 E17.7 E8" end="3600.00" number="50"/>
    <flow id="f_11" begin="0.00" from="E26" to="E14" via="E26.149 E28 E15 E16 E16.12 E11" end="3600.00" number="50"/>
    <flow id="f_12" begin="0.00" from="E26" to="E24.20" via="E26.149 E28 E15 E16 E16.12 E18 E23 E24" end="3600.00" number="20"/>
    <flow id="f_13" begin="0.00" from="E26" to="E27" via="E26.149" end="3600.00" number="20"/>
    <flow id="f_14" begin="0.00" from="E4" to="E3" end="3600.00" number="40"/>
    <flow id="f_15" begin="0.00" from="E20" to="E27" via="E21 E23 E25" end="3600.00" number="20"/>
    <flow id="f_2" begin="0.00" from="E0" to="E9" via="E1 E1.17 E6 E6.14" number="1800" vehsPerHour="360"/>
    <flow id="f_3" begin="0.00" from="E0" to="E3" via="E1 E1.17 E7 E19 E18 E23 E25 E28 E5 E5.12" end="3600.00" number="400"/>
    <flow id="f_4" begin="0.00" from="E0" to="E24.20" via="E1 E1.17 E7 E19 E18 E23 E24" end="3600.00" number="80"/>
    <flow id="f_5" begin="0.00" from="E20" to="E24.20" via="E21 E22 E23 E24" end="3600.00" number="50"/>
    <flow id="f_6" begin="0.00" from="E20" to="E3" via="E21 E22 E23 E25 E28 E5 E5.12" end="3600.00" number="400"/>
    <flow id="f_7" begin="0.00" from="E20" to="E9" via="E21 E22 E23 E25 E28 E15 E17 E17.7 E8 E8.7" end="3600.00" number="50"/>
    <flow id="f_8" begin="0.00" from="E20" to="E14" via="E21 E22 E23 E25 E28 E15 E16 E16.12 E11" end="3600.00" number="50"/>
    <flow id="f_9" begin="0.00" from="E26" to="E3" via="E26.149 E28 E5 E5.12" end="3600.00" number="400"/>
</routes>
