<?xml version="1.0" encoding="UTF-8"?>

<!-- generated on 2025-05-01 18:17:10 by Eclipse SUMO netedit Version 1.22.0
<neteditConfiguration xmlns:xsi="http://www.w3.org/2001/XMLSchema-instance" xsi:noNamespaceSchemaLocation="http://sumo.dlr.de/xsd/neteditConfiguration.xsd">

    <input>
        <sumo-net-file value="E:\python\faltay\faltay.net.xml"/>
    </input>

    <output>
        <output-file value="E:\python\faltay\faltay.net.xml"/>
    </output>

    <processing>
        <offset.disable-normalization value="true"/>
    </processing>

    <junctions>
        <no-turnarounds value="true"/>
    </junctions>

    <netedit>
        <new-network value="false"/>
    </netedit>

</neteditConfiguration>
-->

<net version="1.20" junctionCornerDetail="5" limitTurnSpeed="5.50" xmlns:xsi="http://www.w3.org/2001/XMLSchema-instance" xsi:noNamespaceSchemaLocation="http://sumo.dlr.de/xsd/net_file.xsd">

    <location netOffset="0.00,0.00" convBoundary="-191.76,-96.20,183.57,168.42" origBoundary="10000000000.00,10000000000.00,-10000000000.00,-10000000000.00" projParameter="!"/>

    <edge id=":J21_0" function="internal">
        <lane id=":J21_0_0" index="0" speed="13.89" length="10.71" shape="71.80,-46.53 81.88,-50.05"/>
        <lane id=":J21_0_1" index="1" speed="13.89" length="10.71" shape="72.82,-43.49 82.96,-47.03"/>
    </edge>
    <edge id=":J25_0" function="internal">
        <lane id=":J25_0_0" index="0" speed="13.89" length="11.95" shape="-36.47,26.29 -36.50,22.78 -37.03,20.40 -37.66,18.01 -38.00,14.49"/>
        <lane id=":J25_0_1" index="1" speed="13.89" length="12.25" shape="-33.28,26.55 -33.30,22.95 -33.83,20.51 -34.46,18.06 -34.80,14.45"/>
    </edge>
    <edge id=":J25_2" function="internal">
        <lane id=":J25_2_0" index="0" speed="13.89" length="12.27" shape="-30.10,26.81 -30.00,22.93 -30.04,20.18 -29.55,17.61 -27.85,14.25"/>
        <lane id=":J25_2_1" index="1" speed="13.89" length="12.27" shape="-26.91,27.07 -26.85,23.63 -26.96,21.19 -26.59,18.90 -25.13,15.93"/>
    </edge>
    <edge id=":J3_0" function="internal">
        <lane id=":J3_0_0" index="0" speed="13.89" length="11.97" shape="-112.37,1.70 -100.63,-0.42"/>
        <lane id=":J3_0_1" index="1" speed="13.89" length="11.97" shape="-111.85,4.86 -100.02,2.72"/>
    </edge>
    <edge id=":J3_2" function="internal">
        <lane id=":J3_2_0" index="0" speed="11.48" length="13.28" shape="-111.85,4.86 -108.55,4.66 -105.39,5.17 -102.34,6.38 -99.42,8.30"/>
        <lane id=":J3_2_1" index="1" speed="11.01" length="12.17" shape="-111.85,4.86 -110.28,5.08 -108.01,6.14 -105.06,8.05 -101.42,10.80"/>
    </edge>
    <edge id=":J31_0" function="internal">
        <lane id=":J31_0_0" index="0" speed="13.89" length="7.05" shape="86.99,-38.58 85.16,-38.09 83.84,-37.82 82.65,-37.33 81.20,-36.19"/>
        <lane id=":J31_0_1" index="1" speed="13.89" length="7.05" shape="85.97,-41.62 83.75,-40.99 82.18,-40.59 80.77,-39.94 79.02,-38.53"/>
    </edge>
    <edge id=":J32_0" function="internal">
        <lane id=":J32_0_0" index="0" speed="12.98" length="6.14" shape="57.77,-14.20 56.76,-13.02 56.36,-12.00 56.14,-10.85 55.68,-9.30"/>
        <lane id=":J32_0_1" index="1" speed="13.89" length="6.14" shape="55.58,-16.54 54.27,-15.06 53.68,-13.81 53.32,-12.41 52.70,-10.46"/>
    </edge>
    <edge id=":J4_0" function="internal">
        <lane id=":J4_0_0" index="0" speed="12.49" length="9.97" width="5.00" shape="-77.84,-5.61 -75.08,-6.47 -73.38,-7.55 -71.96,-9.10 -70.08,-11.39"/>
    </edge>
    <edge id=":J4_1" function="internal">
        <lane id=":J4_1_0" index="0" speed="13.89" length="11.38" shape="-77.84,-5.61 -66.46,-7.40"/>
        <lane id=":J4_1_1" index="1" speed="13.89" length="11.38" shape="-77.10,-2.50 -66.00,-4.24"/>
    </edge>
    <edge id=":J44_0" function="internal">
        <lane id=":J44_0_0" index="0" speed="13.89" length="13.97" shape="54.93,95.80 41.14,93.82"/>
        <lane id=":J44_0_1" index="1" speed="13.89" length="13.97" shape="55.41,92.64 41.58,90.65"/>
        <lane id=":J44_0_2" index="2" speed="13.89" length="13.97" shape="55.89,89.48 42.02,87.48"/>
    </edge>
    <edge id=":J45_0" function="internal">
        <lane id=":J45_0_0" index="0" speed="13.89" length="10.97" shape="-26.82,-43.01 -25.82,-39.95 -24.74,-38.01 -23.30,-36.25 -21.23,-33.73"/>
        <lane id=":J45_0_1" index="1" speed="13.89" length="12.25" shape="-29.92,-42.17 -28.81,-38.76 -27.64,-36.57 -26.06,-34.59 -23.75,-31.77"/>
    </edge>
    <edge id=":J46_0" function="internal">
        <lane id=":J46_0_0" index="0" speed="13.89" length="5.13" shape="-38.04,11.28 -38.33,6.19"/>
        <lane id=":J46_0_1" index="1" speed="13.89" length="5.13" shape="-34.84,11.24 -35.13,6.09"/>
    </edge>
    <edge id=":J47_0" function="internal">
        <lane id=":J47_0_0" index="0" speed="13.89" length="9.93" shape="-22.47,8.39 -20.26,6.78 -18.95,5.42 -17.89,3.82 -16.40,1.49"/>
        <lane id=":J47_0_1" index="1" speed="13.89" length="9.93" shape="-20.69,11.05 -18.18,9.23 -16.67,7.71 -15.44,5.91 -13.74,3.27"/>
    </edge>
    <edge id=":J50_0" function="internal">
        <lane id=":J50_0_0" index="0" speed="13.89" length="6.37" shape="-53.79,69.38 -60.09,68.47"/>
        <lane id=":J50_0_1" index="1" speed="13.89" length="6.37" shape="-53.33,66.21 -59.63,65.30"/>
        <lane id=":J50_0_2" index="2" speed="13.89" length="6.37" shape="-52.87,63.04 -59.17,62.13"/>
    </edge>
    <edge id=":J51_0" function="internal">
        <lane id=":J51_0_0" index="0" speed="13.89" length="2.71" shape="-87.21,-3.38 -84.58,-4.01"/>
        <lane id=":J51_0_1" index="1" speed="13.89" length="2.71" shape="-86.47,-0.27 -83.84,-0.89"/>
    </edge>
    <edge id=":J52_0" function="internal">
        <lane id=":J52_0_0" index="0" speed="13.89" length="12.63" shape="67.50,57.91 70.03,60.59 71.82,62.36 73.73,64.02 76.58,66.35"/>
        <lane id=":J52_0_1" index="1" speed="13.89" length="12.63" shape="65.16,60.09 67.78,62.87 69.64,64.70 71.61,66.42 74.56,68.83"/>
    </edge>
    <edge id=":J53_0" function="internal">
        <lane id=":J53_0_0" index="0" speed="13.89" length="6.32" width="5.00" shape="-67.03,-14.91 -65.73,-16.27 -64.77,-17.15 -63.92,-18.11 -62.97,-19.70"/>
    </edge>
    <edge id=":J54_0" function="internal">
        <lane id=":J54_0_0" index="0" speed="13.89" length="7.89" shape="-42.64,-26.93 -43.13,-34.80"/>
        <lane id=":J54_0_1" index="1" speed="13.89" length="7.89" shape="-39.44,-27.13 -39.93,-35.00"/>
    </edge>
    <edge id=":clusterJ11_J24_J49_0" function="internal">
        <lane id=":clusterJ11_J24_J49_0_0" index="0" speed="13.89" length="26.92" shape="-17.79,83.83 -25.06,81.01 -29.39,77.25 -33.74,73.63 -41.09,71.23"/>
        <lane id=":clusterJ11_J24_J49_0_1" index="1" speed="13.89" length="27.09" shape="-17.16,80.69 -24.48,77.87 -28.84,74.10 -33.23,70.47 -40.63,68.06"/>
        <lane id=":clusterJ11_J24_J49_0_2" index="2" speed="13.89" length="27.26" shape="-16.52,77.56 -23.89,74.72 -28.30,70.94 -32.72,67.31 -40.17,64.89"/>
    </edge>
    <edge id=":clusterJ11_J24_J49_3" function="internal">
        <lane id=":clusterJ11_J24_J49_3_0" index="0" speed="13.89" length="25.36" shape="-15.88,74.42 -21.12,72.12 -25.81,67.48 -29.93,60.49 -33.49,51.15"/>
        <lane id=":clusterJ11_J24_J49_3_1" index="1" speed="13.75" length="25.36" shape="-15.24,71.28 -19.64,69.27 -23.64,65.08 -27.24,58.72 -30.44,50.20"/>
        <lane id=":clusterJ11_J24_J49_3_2" index="2" speed="12.88" length="25.36" shape="-14.60,68.15 -18.16,66.41 -21.47,62.68 -24.55,56.95 -27.38,49.24"/>
        <lane id=":clusterJ11_J24_J49_3_3" index="3" speed="11.96" length="25.36" shape="-13.97,65.01 -16.67,63.55 -19.30,60.27 -21.85,55.19 -24.33,48.29"/>
    </edge>
    <edge id=":clusterJ12_J5_J6_J9_0" function="internal">
        <lane id=":clusterJ12_J5_J6_J9_0_0" index="0" speed="13.89" length="21.61" shape="-66.38,67.56 -87.48,63.05"/>
        <lane id=":clusterJ12_J5_J6_J9_0_1" index="1" speed="13.89" length="21.61" shape="-65.92,64.39 -87.06,59.87"/>
        <lane id=":clusterJ12_J5_J6_J9_0_2" index="2" speed="13.89" length="21.61" shape="-65.46,61.22 -86.64,56.70"/>
    </edge>
    <edge id=":clusterJ12_J5_J6_J9_3" function="internal">
        <lane id=":clusterJ12_J5_J6_J9_3_0" index="0" speed="8.03" length="5.37" shape="-76.11,51.91 -76.70,55.95 -77.48,56.98"/>
        <lane id=":clusterJ12_J5_J6_J9_3_1" index="1" speed="6.54" length="4.83" shape="-79.31,52.00 -79.71,54.43 -81.06,56.02 -81.32,56.11"/>
    </edge>
    <edge id=":clusterJ12_J5_J6_J9_6" function="internal">
        <lane id=":clusterJ12_J5_J6_J9_6_0" index="0" speed="8.03" length="10.64" shape="-77.48,56.98 -78.72,58.63 -82.17,59.93 -87.06,59.87"/>
        <lane id=":clusterJ12_J5_J6_J9_6_1" index="0" speed="6.54" length="5.42" shape="-81.32,56.11 -83.37,56.78 -86.64,56.70"/>
    </edge>
    <edge id=":clusterJ12_J5_J6_J9_5" function="internal">
        <lane id=":clusterJ12_J5_J6_J9_5_0" index="0" speed="9.10" length="16.49" shape="-78.05,74.20 -78.32,69.83 -79.99,66.51 -83.04,64.25 -87.48,63.05"/>
    </edge>
    <edge id=":clusterJ13_J16_0" function="internal">
        <lane id=":clusterJ13_J16_0_0" index="0" speed="13.89" length="18.91" shape="-43.52,-40.98 -44.44,-59.88"/>
        <lane id=":clusterJ13_J16_0_1" index="1" speed="13.89" length="18.91" shape="-40.32,-41.18 -41.24,-60.05"/>
    </edge>
    <edge id=":clusterJ13_J16_2" function="internal">
        <lane id=":clusterJ13_J16_2_0" index="0" speed="13.89" length="31.28" shape="-56.88,-31.56 -53.90,-36.46 -49.60,-43.64 -45.84,-51.87 -44.44,-59.88"/>
    </edge>
    <edge id=":clusterJ14_J15_J27_0" function="internal">
        <lane id=":clusterJ14_J15_J27_0_0" index="0" speed="13.89" length="18.83" shape="-38.58,-2.77 -39.19,-8.27 -40.31,-11.94 -41.49,-15.61 -42.28,-21.10"/>
        <lane id=":clusterJ14_J15_J27_0_1" index="1" speed="13.89" length="18.83" shape="-35.38,-2.86 -35.99,-8.39 -37.12,-12.09 -38.30,-15.78 -39.08,-21.30"/>
    </edge>
    <edge id=":clusterJ14_J15_J27_2" function="internal">
        <lane id=":clusterJ14_J15_J27_2_0" index="0" speed="7.82" length="4.70" shape="-35.38,-2.86 -35.21,-7.31 -35.15,-7.55"/>
        <lane id=":clusterJ14_J15_J27_2_1" index="1" speed="7.02" length="4.92" shape="-35.38,-2.86 -35.15,-5.90 -34.46,-7.64"/>
    </edge>
    <edge id=":clusterJ14_J15_J27_8" function="internal">
        <lane id=":clusterJ14_J15_J27_8_0" index="0" speed="7.82" length="7.91" shape="-35.15,-7.55 -34.39,-10.56 -32.94,-12.63 -30.84,-13.51"/>
        <lane id=":clusterJ14_J15_J27_8_1" index="0" speed="7.02" length="5.04" shape="-34.46,-7.64 -34.25,-8.16 -32.69,-9.64 -30.47,-10.33"/>
    </edge>
    <edge id=":clusterJ14_J15_J27_4" function="internal">
        <lane id=":clusterJ14_J15_J27_4_0" index="0" speed="8.04" length="13.43" shape="-47.62,-10.17 -45.05,-11.18 -43.30,-13.34 -42.38,-16.65 -42.28,-21.10"/>
    </edge>
    <edge id=":clusterJ14_J15_J27_5" function="internal">
        <lane id=":clusterJ14_J15_J27_5_0" index="0" speed="13.89" length="17.52" shape="-47.62,-10.17 -42.61,-11.59 -39.43,-13.53 -36.25,-15.42 -31.22,-16.69"/>
        <lane id=":clusterJ14_J15_J27_5_1" index="1" speed="13.89" length="17.52" shape="-47.16,-7.01 -42.17,-8.42 -39.01,-10.35 -35.85,-12.24 -30.84,-13.51"/>
        <lane id=":clusterJ14_J15_J27_5_2" index="2" speed="13.89" length="17.52" shape="-47.16,-7.01 -30.47,-10.33"/>
    </edge>
    <edge id=":clusterJ19_J20_J26_J28_0" function="internal">
        <lane id=":clusterJ19_J20_J26_J28_0_0" index="0" speed="12.99" length="26.94" shape="-15.61,-27.37 -11.34,-24.28 -5.66,-22.96 1.41,-23.41 9.88,-25.62"/>
    </edge>
    <edge id=":clusterJ19_J20_J26_J28_1" function="internal">
        <lane id=":clusterJ19_J20_J26_J28_1_0" index="0" speed="13.89" length="32.11" shape="-15.61,-27.37 -10.19,-23.46 -3.73,-21.58 4.10,-19.77 13.63,-16.06"/>
        <lane id=":clusterJ19_J20_J26_J28_1_1" index="1" speed="13.89" length="32.11" shape="-15.61,-27.37 -10.40,-23.01 -4.42,-20.14 2.91,-17.35 12.18,-13.21"/>
        <lane id=":clusterJ19_J20_J26_J28_1_2" index="2" speed="13.89" length="32.11" shape="-17.99,-25.23 -12.71,-20.80 -6.53,-17.74 1.10,-14.71 10.74,-10.35"/>
        <lane id=":clusterJ19_J20_J26_J28_1_3" index="3" speed="13.89" length="32.11" shape="-17.99,-25.23 -12.95,-20.36 -7.28,-16.33 -0.15,-12.32 9.30,-7.50"/>
    </edge>
    <edge id=":clusterJ19_J20_J26_J28_5" function="internal">
        <lane id=":clusterJ19_J20_J26_J28_5_0" index="0" speed="13.89" length="29.28" shape="-17.98,-18.24 -8.68,-19.18 -1.65,-19.85 4.43,-20.80 10.91,-22.59"/>
    </edge>
    <edge id=":clusterJ19_J20_J26_J28_6" function="internal">
        <lane id=":clusterJ19_J20_J26_J28_6_0" index="0" speed="13.89" length="15.47" shape="-17.61,-15.06 -8.40,-16.94 -2.56,-18.60"/>
        <lane id=":clusterJ19_J20_J26_J28_6_1" index="1" speed="13.89" length="14.11" shape="-17.61,-15.06 -8.57,-16.45 -3.65,-17.11"/>
        <lane id=":clusterJ19_J20_J26_J28_6_2" index="2" speed="13.89" length="11.08" shape="-17.24,-11.88 -8.75,-13.22 -6.29,-13.58"/>
        <lane id=":clusterJ19_J20_J26_J28_6_3" index="3" speed="13.89" length="10.33" shape="-17.24,-11.88 -9.14,-12.71 -6.95,-12.65"/>
    </edge>
    <edge id=":clusterJ19_J20_J26_J28_13" function="internal">
        <lane id=":clusterJ19_J20_J26_J28_13_0" index="0" speed="13.89" length="16.76" shape="-2.56,-18.60 -1.63,-18.86 4.96,-19.13 13.63,-16.06"/>
        <lane id=":clusterJ19_J20_J26_J28_13_1" index="0" speed="13.89" length="16.56" shape="-3.65,-17.11 -2.15,-17.31 4.00,-16.58 12.18,-13.21"/>
        <lane id=":clusterJ19_J20_J26_J28_13_2" index="0" speed="13.89" length="17.72" shape="-6.29,-13.58 -2.72,-14.10 3.05,-13.49 10.74,-10.35"/>
        <lane id=":clusterJ19_J20_J26_J28_13_3" index="0" speed="13.89" length="17.25" shape="-6.95,-12.65 -3.46,-12.55 1.97,-10.96 9.30,-7.50"/>
    </edge>
    <edge id=":clusterJ19_J20_J26_J28_10" function="internal">
        <lane id=":clusterJ19_J20_J26_J28_10_0" index="0" speed="13.89" length="29.01" shape="-10.78,-4.83 -5.79,-10.50 -1.25,-16.58 3.69,-21.98 9.88,-25.62"/>
        <lane id=":clusterJ19_J20_J26_J28_10_1" index="1" speed="13.89" length="29.01" shape="-8.60,-2.49 -3.79,-8.05 0.35,-13.89 4.89,-19.06 10.91,-22.59"/>
    </edge>
    <edge id=":clusterJ19_J20_J26_J28_12" function="internal">
        <lane id=":clusterJ19_J20_J26_J28_12_0" index="0" speed="10.89" length="19.82" shape="-8.60,-2.49 -3.80,-6.21 0.78,-8.29 5.15,-8.72 9.30,-7.50"/>
    </edge>
    <edge id=":clusterJ29_J33_J34_0" function="internal">
        <lane id=":clusterJ29_J33_J34_0_0" index="0" speed="13.89" length="19.14" shape="51.28,1.94 49.74,6.41 49.27,9.66 49.60,12.98 50.47,17.68"/>
        <lane id=":clusterJ29_J33_J34_0_1" index="1" speed="13.89" length="19.14" shape="51.28,1.94 49.16,6.63 47.59,9.93 46.88,13.32 47.32,18.25"/>
        <lane id=":clusterJ29_J33_J34_0_2" index="2" speed="13.89" length="19.14" shape="51.28,1.94 48.53,6.91 45.86,10.20 44.12,13.58 44.17,18.82"/>
        <lane id=":clusterJ29_J33_J34_0_3" index="3" speed="13.89" length="19.14" shape="48.30,0.78 45.38,6.23 42.63,9.88 40.90,13.64 41.02,19.39"/>
        <lane id=":clusterJ29_J33_J34_0_4" index="4" speed="13.89" length="19.14" shape="48.30,0.78 44.86,6.19 40.99,9.83 38.17,13.74 37.87,19.96"/>
    </edge>
    <edge id=":clusterJ29_J33_J34_5" function="internal">
        <lane id=":clusterJ29_J33_J34_5_0" index="0" speed="13.89" length="16.03" shape="39.03,1.70 42.89,5.73 45.04,8.98 46.26,12.73 47.32,18.25"/>
        <lane id=":clusterJ29_J33_J34_5_1" index="1" speed="13.89" length="16.03" shape="36.80,3.99 40.24,7.60 42.16,10.52 43.23,13.88 44.17,18.82"/>
        <lane id=":clusterJ29_J33_J34_5_2" index="2" speed="13.89" length="16.03" shape="34.56,6.29 37.60,9.47 39.27,12.05 40.20,15.03 41.02,19.39"/>
        <lane id=":clusterJ29_J33_J34_5_3" index="3" speed="13.89" length="16.03" shape="32.33,8.58 34.95,11.34 36.38,13.59 37.17,16.17 37.87,19.96"/>
    </edge>
    <edge id=":clusterJ35_J36_J38_0" function="internal">
        <lane id=":clusterJ35_J36_J38_0_0" index="0" speed="13.89" length="17.49" shape="51.26,32.04 51.33,37.02 52.54,40.33 54.87,43.29 58.30,47.22"/>
        <lane id=":clusterJ35_J36_J38_0_1" index="1" speed="13.89" length="19.96" shape="48.07,31.78 48.10,37.49 49.39,41.31 51.95,44.74 55.82,49.24"/>
    </edge>
    <edge id=":clusterJ35_J36_J38_2" function="internal">
        <lane id=":clusterJ35_J36_J38_2_0" index="0" speed="13.89" length="18.30" shape="48.07,31.78 47.40,38.05 46.20,42.31 43.86,46.08 39.73,50.85"/>
        <lane id=":clusterJ35_J36_J38_2_1" index="1" speed="13.89" length="18.30" shape="44.88,31.52 44.27,37.17 43.20,41.01 41.08,44.40 37.36,48.70"/>
        <lane id=":clusterJ35_J36_J38_2_2" index="2" speed="13.89" length="18.30" shape="41.69,31.26 41.15,36.29 40.19,39.71 38.30,42.73 34.98,46.56"/>
        <lane id=":clusterJ35_J36_J38_2_3" index="3" speed="13.89" length="18.30" shape="38.50,31.00 38.02,35.41 37.18,38.41 35.52,41.05 32.61,44.41"/>
    </edge>
    <edge id=":clusterJ39_J41_J42_J48_0" function="internal">
        <lane id=":clusterJ39_J41_J42_J48_0_0" index="0" speed="8.87" length="19.21" width="7.00" shape="24.37,91.51 18.47,91.38 14.22,92.86 11.62,95.94 10.67,100.62"/>
    </edge>
    <edge id=":clusterJ39_J41_J42_J48_1" function="internal">
        <lane id=":clusterJ39_J41_J42_J48_1_0" index="0" speed="13.89" length="30.67" shape="24.37,91.51 -4.86,86.46"/>
        <lane id=":clusterJ39_J41_J42_J48_1_1" index="1" speed="13.89" length="30.67" shape="24.37,91.51 15.74,89.79 10.02,87.77 4.32,85.57 -4.22,83.32"/>
        <lane id=":clusterJ39_J41_J42_J48_1_2" index="2" speed="13.89" length="30.67" shape="24.37,91.51 15.81,89.30 10.36,86.21 4.93,82.93 -3.58,80.19"/>
        <lane id=":clusterJ39_J41_J42_J48_1_3" index="3" speed="13.89" length="30.67" shape="24.81,88.34 16.28,86.13 10.87,83.05 5.50,79.79 -2.95,77.05"/>
        <lane id=":clusterJ39_J41_J42_J48_1_4" index="4" speed="13.89" length="30.67" shape="24.81,88.34 16.42,85.65 11.32,81.51 6.19,77.17 -2.31,73.91"/>
        <lane id=":clusterJ39_J41_J42_J48_1_5" index="5" speed="13.89" length="30.67" shape="25.25,85.17 16.87,82.49 11.82,78.35 6.75,74.02 -1.67,70.78"/>
        <lane id=":clusterJ39_J41_J42_J48_1_6" index="6" speed="13.89" length="30.67" shape="25.25,85.17 17.05,82.01 12.34,76.82 7.51,71.42 -1.03,67.64"/>
    </edge>
    <edge id=":clusterJ39_J41_J42_J48_8" function="internal">
        <lane id=":clusterJ39_J41_J42_J48_8_0" index="0" speed="13.89" length="36.14" width="7.00" shape="21.45,67.19 16.96,72.14 13.67,79.36 11.57,88.85 10.67,100.62"/>
    </edge>
    <edge id=":clusterJ39_J41_J42_J48_9" function="internal">
        <lane id=":clusterJ39_J41_J42_J48_9_0" index="0" speed="13.89" length="24.40" shape="19.53,64.63 15.62,67.83 7.72,74.28 -0.21,80.57 -4.22,83.32"/>
        <lane id=":clusterJ39_J41_J42_J48_9_1" index="1" speed="13.89" length="24.40" shape="19.53,64.63 10.12,71.58 3.13,76.49 -1.44,79.36 -3.58,80.19"/>
        <lane id=":clusterJ39_J41_J42_J48_9_2" index="2" speed="13.89" length="24.40" shape="17.61,62.07 14.20,64.69 7.40,69.86 0.57,74.88 -2.95,77.05"/>
        <lane id=":clusterJ39_J41_J42_J48_9_3" index="3" speed="13.89" length="24.40" shape="15.69,59.51 12.68,62.04 6.76,67.01 0.80,71.83 -2.31,73.91"/>
        <lane id=":clusterJ39_J41_J42_J48_9_4" index="4" speed="13.89" length="24.40" shape="15.69,59.51 8.78,64.58 3.59,68.15 0.10,70.21 -1.67,70.78"/>
        <lane id=":clusterJ39_J41_J42_J48_9_5" index="5" speed="13.54" length="24.40" shape="15.69,59.51 10.11,63.42 5.46,66.08 1.75,67.49 -1.03,67.64"/>
    </edge>

    <edge id="E0" from="J2" to="J3" priority="-1" spreadType="center" shape="-191.60,17.21 -155.23,10.38 -106.83,2.41">
        <lane id="E0_0" index="0" speed="13.89" length="80.71" shape="-191.90,15.64 -155.51,8.80 -112.37,1.70"/>
        <lane id="E0_1" index="1" speed="13.89" length="80.71" shape="-191.30,18.78 -154.95,11.96 -111.85,4.86"/>
    </edge>
    <edge id="E1" from="J3" to="J51" priority="-1" spreadType="center" shape="-106.83,2.41 -95.18,0.16 -89.47,-1.20">
        <lane id="E1_0" index="0" speed="13.89" length="13.81" shape="-100.63,-0.42 -95.52,-1.40 -87.21,-3.38"/>
        <lane id="E1_1" index="1" speed="13.89" length="13.81" shape="-100.02,2.72 -94.84,1.72 -86.47,-0.27"/>
    </edge>
    <edge id="E1.17" from="J51" to="J4" priority="-1" spreadType="center" shape="-84.21,-2.45 -76.17,-4.36">
        <lane id="E1.17_0" index="0" speed="13.89" length="6.93" shape="-84.58,-4.01 -77.84,-5.61"/>
        <lane id="E1.17_1" index="1" speed="13.89" length="6.93" shape="-83.84,-0.89 -77.10,-2.50"/>
    </edge>
    <edge id="E10" from="J18" to="J45" priority="-1" spreadType="center" shape="-34.93,-96.20 -31.90,-55.71 -28.09,-41.56 -28.37,-42.59">
        <lane id="E10_0" index="0" speed="13.89" length="54.19" shape="-33.34,-96.32 -30.32,-55.98 -26.82,-43.01"/>
        <lane id="E10_1" index="1" speed="13.89" length="54.19" shape="-36.53,-96.08 -33.48,-55.44 -29.92,-42.17"/>
    </edge>
    <edge id="E10.63" from="J45" to="clusterJ19_J20_J26_J28" priority="-1" spreadType="center" shape="-22.49,-32.75 -21.76,-31.81 -16.80,-26.30">
        <lane id="E10.63_0" index="0" speed="13.89" length="8.60" shape="-21.23,-33.73 -20.53,-32.84 -15.61,-27.37"/>
        <lane id="E10.63_1" index="1" speed="13.89" length="8.60" shape="-23.75,-31.77 -22.99,-30.78 -17.99,-25.23"/>
    </edge>
    <edge id="E11" from="clusterJ19_J20_J26_J28" to="J21" priority="-1" spreadType="center" shape="10.25,-24.06 72.31,-45.01">
        <lane id="E11_0" index="0" speed="13.89" length="65.35" shape="9.88,-25.62 71.80,-46.53"/>
        <lane id="E11_1" index="1" speed="13.89" length="65.35" shape="10.91,-22.59 72.82,-43.49"/>
    </edge>
    <edge id="E14" from="J21" to="J23" priority="-1" spreadType="center" shape="82.42,-48.54 136.88,-67.96">
        <lane id="E14_0" index="0" speed="13.89" length="57.82" shape="81.88,-50.05 136.34,-69.47"/>
        <lane id="E14_1" index="1" speed="13.89" length="57.82" shape="82.96,-47.03 137.42,-66.46"/>
    </edge>
    <edge id="E15" from="clusterJ11_J24_J49" to="J25" priority="-1" spreadType="center" shape="-28.91,49.72 -32.61,37.87 -31.69,26.68">
        <lane id="E15_0" index="0" speed="13.89" length="23.64" shape="-33.49,51.15 -37.47,38.41 -36.47,26.29"/>
        <lane id="E15_1" index="1" speed="13.89" length="23.64" shape="-30.44,50.20 -34.23,38.05 -33.28,26.55"/>
        <lane id="E15_2" index="2" speed="13.89" length="23.64" shape="-27.38,49.24 -30.99,37.69 -30.10,26.81"/>
        <lane id="E15_3" index="3" speed="13.89" length="23.64" shape="-24.33,48.29 -27.75,37.33 -26.91,27.07"/>
    </edge>
    <edge id="E16" from="J25" to="J47" priority="-1" spreadType="center" shape="-27.18,16.20 -24.29,11.52 -21.58,9.72">
        <lane id="E16_0" index="0" speed="13.89" length="7.45" shape="-27.85,14.25 -25.47,10.38 -22.47,8.39"/>
        <lane id="E16_1" index="1" speed="13.89" length="7.45" shape="-25.13,15.93 -23.11,12.66 -20.69,11.05"/>
    </edge>
    <edge id="E16.12" from="J47" to="clusterJ19_J20_J26_J28" priority="-1" spreadType="center" shape="-15.07,2.38 -13.23,-0.38 -9.69,-3.66">
        <lane id="E16.12_0" index="0" speed="13.89" length="8.14" shape="-16.40,1.49 -14.46,-1.43 -10.78,-4.83"/>
        <lane id="E16.12_1" index="1" speed="13.89" length="8.14" shape="-13.74,3.27 -12.00,0.67 -8.60,-2.49"/>
    </edge>
    <edge id="E17" from="J25" to="J46" priority="-1" spreadType="center" shape="-36.40,14.47 -36.44,11.26">
        <lane id="E17_0" index="0" speed="13.89" length="3.21" shape="-38.00,14.49 -38.04,11.28"/>
        <lane id="E17_1" index="1" speed="13.89" length="3.21" shape="-34.80,14.45 -34.84,11.24"/>
    </edge>
    <edge id="E17.7" from="J46" to="clusterJ14_J15_J27" priority="-1" spreadType="center" shape="-36.73,6.14 -37.02,-4.13">
        <lane id="E17.7_0" index="0" speed="13.89" length="8.96" shape="-38.33,6.19 -38.58,-2.77"/>
        <lane id="E17.7_1" index="1" speed="13.89" length="8.96" shape="-35.13,6.09 -35.38,-2.86"/>
    </edge>
    <edge id="E18" from="clusterJ19_J20_J26_J28" to="clusterJ29_J33_J34" priority="-1" spreadType="center" shape="11.46,-11.78 25.71,-4.57 35.68,5.14">
        <lane id="E18_0" index="0" speed="13.89" length="29.88" shape="13.63,-16.06 28.53,-8.52 39.03,1.70"/>
        <lane id="E18_1" index="1" speed="13.89" length="29.88" shape="12.18,-13.21 26.65,-5.89 36.80,3.99"/>
        <lane id="E18_2" index="2" speed="13.89" length="29.88" shape="10.74,-10.35 24.77,-3.25 34.56,6.29"/>
        <lane id="E18_3" index="3" speed="13.89" length="29.88" shape="9.30,-7.50 22.89,-0.62 32.33,8.58"/>
    </edge>
    <edge id="E19" from="clusterJ14_J15_J27" to="clusterJ19_J20_J26_J28" priority="-1" spreadType="center">
        <lane id="E19_0" index="0" speed="13.89" length="13.33" shape="-31.22,-16.69 -17.98,-18.24"/>
        <lane id="E19_1" index="1" speed="13.89" length="13.33" shape="-30.84,-13.51 -17.61,-15.06"/>
        <lane id="E19_2" index="2" speed="13.89" length="13.33" shape="-30.47,-10.33 -17.24,-11.88"/>
    </edge>
    <edge id="E2" from="J3" to="clusterJ12_J5_J6_J9" priority="-1" spreadType="center" shape="-100.42,9.55 -93.57,15.00 -87.59,19.66 -82.48,25.38 -79.29,33.42 -77.99,41.51 -77.66,53.70">
        <lane id="E2_0" index="0" speed="13.89" length="51.30" shape="-99.42,8.30 -92.58,13.74 -86.49,18.49 -81.10,24.53 -77.74,32.99 -76.39,41.36 -76.11,51.91"/>
        <lane id="E2_1" index="1" speed="13.89" length="51.30" shape="-101.42,10.80 -94.56,16.26 -88.69,20.83 -83.86,26.23 -80.84,33.85 -79.59,41.66 -79.31,52.00"/>
    </edge>
    <edge id="E20" from="J30" to="J31" priority="-1" spreadType="center" shape="141.06,-58.45 86.48,-40.10">
        <lane id="E20_0" index="0" speed="13.89" length="57.58" shape="141.57,-56.93 86.99,-38.58"/>
        <lane id="E20_1" index="1" speed="13.89" length="57.58" shape="140.55,-59.96 85.97,-41.62"/>
    </edge>
    <edge id="E21" from="J31" to="J32" priority="-1" spreadType="center" shape="80.11,-37.36 56.16,-14.89">
        <lane id="E21_0" index="0" speed="13.89" length="32.14" shape="81.20,-36.19 57.77,-14.20"/>
        <lane id="E21_1" index="1" speed="13.89" length="32.14" shape="79.02,-38.53 55.58,-16.54"/>
    </edge>
    <edge id="E22" from="J32" to="clusterJ29_J33_J34" priority="-1" spreadType="center" shape="54.19,-9.88 49.79,1.36">
        <lane id="E22_0" index="0" speed="13.89" length="12.07" shape="55.68,-9.30 51.28,1.94"/>
        <lane id="E22_1" index="1" speed="13.89" length="12.07" shape="52.70,-10.46 48.30,0.78"/>
    </edge>
    <edge id="E23" from="clusterJ29_J33_J34" to="clusterJ35_J36_J38" priority="-1" spreadType="center" shape="44.17,18.82 45.37,25.46 44.88,31.52">
        <lane id="E23_0" index="0" speed="13.89" length="12.83" shape="50.47,17.68 51.82,25.14 51.26,32.04"/>
        <lane id="E23_1" index="1" speed="13.89" length="12.83" shape="47.32,18.25 48.59,25.30 48.07,31.78"/>
        <lane id="E23_2" index="2" speed="13.89" length="12.83" shape="44.17,18.82 45.37,25.46 44.88,31.52"/>
        <lane id="E23_3" index="3" speed="13.89" length="12.83" shape="41.02,19.39 42.15,25.62 41.69,31.26"/>
        <lane id="E23_4" index="4" speed="13.89" length="12.83" shape="37.87,19.96 38.92,25.78 38.50,31.00"/>
    </edge>
    <edge id="E24" from="clusterJ35_J36_J38" to="J52" priority="-1" spreadType="center" shape="57.06,48.23 62.67,55.08 66.33,59.00">
        <lane id="E24_0" index="0" speed="13.89" length="14.22" shape="58.30,47.22 63.87,54.03 67.50,57.91"/>
        <lane id="E24_1" index="1" speed="13.89" length="14.22" shape="55.82,49.24 61.47,56.13 65.16,60.09"/>
    </edge>
    <edge id="E24.20" from="J52" to="J37" priority="-1" spreadType="center" shape="75.57,67.59 80.21,71.36 92.12,77.87 139.02,90.93 183.57,98.97">
        <lane id="E24.20_0" index="0" speed="13.89" length="113.51" shape="76.58,66.35 81.11,70.03 92.73,76.38 139.38,89.37 183.85,97.40"/>
        <lane id="E24.20_1" index="1" speed="13.89" length="113.51" shape="74.56,68.83 79.31,72.69 91.51,79.36 138.66,92.49 183.29,100.54"/>
    </edge>
    <edge id="E25" from="clusterJ35_J36_J38" to="clusterJ39_J41_J42_J48" priority="-1" spreadType="center" shape="36.17,47.63 29.04,55.50 18.57,63.35">
        <lane id="E25_0" index="0" speed="13.89" length="23.71" shape="39.73,50.85 32.29,59.06 21.45,67.19"/>
        <lane id="E25_1" index="1" speed="13.89" length="23.71" shape="37.36,48.70 30.12,56.69 19.53,64.63"/>
        <lane id="E25_2" index="2" speed="13.89" length="23.71" shape="34.98,46.56 27.96,54.31 17.61,62.07"/>
        <lane id="E25_3" index="3" speed="13.89" length="23.71" shape="32.61,44.41 25.79,51.94 15.69,59.51"/>
    </edge>
    <edge id="E26" from="J40" to="J44" priority="-1" spreadType="center" shape="178.81,111.42 55.41,92.64">
        <lane id="E26_0" index="0" speed="13.89" length="124.82" shape="178.33,114.58 54.93,95.80"/>
        <lane id="E26_1" index="1" speed="13.89" length="124.82" shape="178.81,111.42 55.41,92.64"/>
        <lane id="E26_2" index="2" speed="13.89" length="124.82" shape="179.29,108.25 55.89,89.48"/>
    </edge>
    <edge id="E26.149" from="J44" to="clusterJ39_J41_J42_J48" priority="-1" spreadType="center" shape="41.58,90.65 24.81,88.34">
        <lane id="E26.149_0" index="0" speed="13.89" length="16.93" shape="41.14,93.82 24.37,91.51"/>
        <lane id="E26.149_1" index="1" speed="13.89" length="16.93" shape="41.58,90.65 24.81,88.34"/>
        <lane id="E26.149_2" index="2" speed="13.89" length="16.93" shape="42.02,87.48 25.25,85.17"/>
    </edge>
    <edge id="E27" from="clusterJ39_J41_J42_J48" to="J43" priority="-2" spreadType="center" shape="10.67,100.62 9.07,168.42">
        <lane id="E27_0" index="0" speed="13.89" length="67.82" width="7.00" shape="10.67,100.62 9.07,168.42"/>
    </edge>