<?xml version='1.0' encoding='UTF-8'?>
<!-- generated on 2025-05-01 00:54:35 by Eclipse SUMO netedit Version 1.22.0
<neteditConfiguration xmlns:xsi="http://www.w3.org/2001/XMLSchema-instance" xsi:noNamespaceSchemaLocation="http://sumo.dlr.de/xsd/neteditConfiguration.xsd">

    <input>
        <sumo-net-file value="E:\python\trafik5\deneme.net.xml"/>
    </input>

    <output>
        <output-file value="E:\python\trafik5\deneme.net.xml"/>
    </output>

    <processing>
        <offset.disable-normalization value="true"/>
    </processing>

    <junctions>
        <no-internal-links value="false"/>
        <no-turnarounds value="true"/>
    </junctions>

    <netedit>
        <new-network value="false"/>
    </netedit>

</neteditConfiguration>
-->
<net xmlns:xsi="http://www.w3.org/2001/XMLSchema-instance" version="1.20" junctionCornerDetail="5" limitTurnSpeed="5.50" xsi:noNamespaceSchemaLocation="http://sumo.dlr.de/xsd/net_file.xsd">

    <location netOffset="0.00,0.00" convBoundary="-88.45,-124.12,178.37,91.20" origBoundary="10000000000.00,10000000000.00,-10000000000.00,-10000000000.00" projParameter="!"/>

    <edge id=":J11_0" function="internal">
        <lane id=":J11_0_0" index="0" disallow="pedestrian" speed="13.89" length="14.84" shape="67.62,29.88 52.75,29.45"/>
        <lane id=":J11_0_1" index="1" disallow="pedestrian" speed="13.89" length="14.84" shape="67.65,26.68 52.85,26.25"/>
    </edge>
    <edge id=":J11_2" function="internal">
        <lane id=":J11_2_0" index="0" disallow="pedestrian" speed="13.89" length="14.58" shape="67.65,26.68 63.36,26.56 60.39,26.09 57.66,24.87 54.07,22.53"/>
        <lane id=":J11_2_1" index="1" disallow="pedestrian" speed="13.89" length="14.02" shape="67.65,26.68 63.74,26.13 61.32,24.71 59.13,22.57 55.89,19.89"/>
    </edge>
    <edge id=":J12_0" function="internal">
        <lane id=":J12_0_0" index="0" disallow="pedestrian" speed="13.89" length="9.49" shape="43.49,-29.00 44.44,-31.42 44.80,-33.18 44.84,-35.01 44.84,-37.64"/>
        <lane id=":J12_0_1" index="1" disallow="pedestrian" speed="13.89" length="9.49" shape="46.41,-27.70 47.51,-30.46 47.95,-32.47 48.03,-34.56 48.04,-37.57"/>
    </edge>
    <edge id=":J12_2" function="internal">
        <lane id=":J12_2_0" index="0" disallow="pedestrian" speed="11.07" length="9.55" shape="46.41,-27.70 47.43,-30.36 48.18,-32.29 49.34,-33.81 51.65,-35.23"/>
        <lane id=":J12_2_1" index="1" disallow="pedestrian" speed="10.42" length="8.41" shape="46.41,-27.70 47.62,-29.73 48.96,-30.75 50.68,-31.40 53.02,-32.34"/>
    </edge>
    <edge id=":J15_0" function="internal">
        <lane id=":J15_0_0" index="0" disallow="pedestrian" speed="8.74" length="14.51" shape="72.97,-57.02 76.83,-54.18 80.28,-52.70 83.33,-52.57 85.98,-53.78"/>
        <lane id=":J15_0_1" index="1" disallow="pedestrian" speed="9.92" length="18.95" shape="70.85,-54.62 75.72,-51.13 80.19,-49.40 84.26,-49.44 87.94,-51.25"/>
    </edge>
    <edge id=":J15_2" function="internal">
        <lane id=":J15_2_0" index="0" disallow="pedestrian" speed="13.89" length="19.95" shape="70.85,-54.62 75.44,-51.02 79.05,-49.18 83.08,-48.22 88.92,-47.22"/>
    </edge>
    <edge id=":J15_3" function="internal">
        <lane id=":J15_3_0" index="0" disallow="pedestrian" speed="12.83" length="17.58" shape="69.13,-51.18 74.16,-50.51 78.65,-50.72 82.58,-51.81 85.98,-53.78"/>
        <lane id=":J15_3_1" index="1" disallow="pedestrian" speed="13.78" length="20.34" shape="68.47,-48.05 74.21,-47.30 79.37,-47.58 83.94,-48.90 87.94,-51.25"/>
    </edge>
    <edge id=":J15_5" function="internal">
        <lane id=":J15_5_0" index="0" disallow="pedestrian" speed="13.89" length="20.27" shape="68.47,-48.05 88.35,-44.08"/>
    </edge>
    <edge id=":J15_6" function="internal">
        <lane id=":J15_6_0" index="0" disallow="pedestrian" speed="13.89" length="19.29" shape="69.90,-43.89 74.96,-46.33 78.34,-48.18 81.52,-50.37 85.98,-53.78"/>
        <lane id=":J15_6_1" index="1" disallow="pedestrian" speed="13.89" length="19.29" shape="71.27,-40.99 76.52,-43.52 80.02,-45.45 83.31,-47.71 87.94,-51.25"/>
    </edge>
    <edge id=":J15_8" function="internal">
        <lane id=":J15_8_0" index="0" disallow="pedestrian" speed="13.89" length="17.86" shape="71.27,-40.99 76.05,-43.26 79.55,-44.51 83.18,-44.77 88.35,-44.08"/>
    </edge>
    <edge id=":J16_0" function="internal">
        <lane id=":J16_0_0" index="0" disallow="pedestrian" speed="13.89" length="0.41" shape="70.50,-59.16 70.76,-58.93"/>
        <lane id=":J16_0_1" index="1" disallow="pedestrian" speed="13.89" length="0.41" shape="68.32,-56.82 68.67,-56.51"/>
    </edge>
    <edge id=":J18_0" function="internal">
        <lane id=":J18_0_0" index="0" disallow="pedestrian" speed="13.89" length="0.29" shape="8.16,-62.27 8.33,-62.52"/>
        <lane id=":J18_0_1" index="1" disallow="pedestrian" speed="13.89" length="0.29" shape="10.79,-60.46 10.95,-60.69"/>
    </edge>
    <edge id=":J19_0" function="internal">
        <lane id=":J19_0_0" index="0" disallow="pedestrian" speed="13.89" length="10.08" shape="25.68,-75.60 23.85,-78.18 22.85,-80.13 22.22,-82.25 21.54,-85.37"/>
        <lane id=":J19_0_1" index="1" disallow="pedestrian" speed="13.89" length="10.08" shape="28.24,-77.53 26.64,-79.79 25.78,-81.49 25.25,-83.35 24.66,-86.07"/>
    </edge>
    <edge id=":J19_2" function="internal">
        <lane id=":J19_2_0" index="0" disallow="pedestrian" speed="9.41" length="8.71" shape="18.71,-77.35 20.20,-79.73 21.17,-81.86 21.61,-83.74 21.54,-85.37"/>
        <lane id=":J19_2_1" index="1" disallow="pedestrian" speed="10.68" length="11.36" shape="21.33,-75.52 23.16,-78.49 24.32,-81.24 24.82,-83.76 24.66,-86.07"/>
    </edge>
    <edge id=":J22_0" function="internal">
        <lane id=":J22_0_0" index="0" disallow="pedestrian" speed="6.09" length="3.58" shape="40.56,-88.10 40.68,-87.38 40.85,-86.90 41.15,-86.49 41.67,-85.98"/>
        <lane id=":J22_0_1" index="1" disallow="pedestrian" speed="8.14" length="3.58" shape="37.40,-87.64 37.63,-86.29 37.94,-85.38 38.51,-84.60 39.49,-83.64"/>
    </edge>
    <edge id=":J23_0" function="internal">
        <lane id=":J23_0_0" index="0" disallow="pedestrian" speed="10.48" length="1.12" shape="103.44,-66.21 103.86,-66.50 104.16,-66.66 104.48,-66.78 104.96,-66.92"/>
        <lane id=":J23_0_1" index="1" disallow="pedestrian" speed="13.89" length="1.12" shape="105.27,-63.59 105.41,-63.68 105.51,-63.74 105.62,-63.78 105.78,-63.82"/>
    </edge>
    <edge id=":J25_0" function="internal">
        <lane id=":J25_0_0" index="0" disallow="pedestrian" speed="7.17" length="2.94" shape="100.38,-45.14 101.23,-44.97 101.79,-44.76 102.29,-44.41 102.91,-43.81"/>
        <lane id=":J25_0_1" index="1" disallow="pedestrian" speed="13.89" length="0.98" shape="99.81,-41.99 100.09,-41.94 100.28,-41.87 100.44,-41.75 100.65,-41.55"/>
    </edge>
    <edge id=":J26_0" function="internal">
        <lane id=":J26_0_0" index="0" disallow="pedestrian" speed="13.89" length="10.42" shape="120.43,-33.61 119.30,-30.98 118.46,-29.13 118.07,-27.24 118.27,-24.47"/>
        <lane id=":J26_0_1" index="1" disallow="pedestrian" speed="13.89" length="10.42" shape="117.44,-34.74 116.14,-31.65 115.23,-29.47 114.84,-27.23 115.11,-23.98"/>
    </edge>
    <edge id=":J26_2" function="internal">
        <lane id=":J26_2_0" index="0" disallow="pedestrian" speed="12.50" length="9.86" shape="113.22,-33.77 115.52,-31.51 116.88,-29.71 117.68,-27.62 118.27,-24.47"/>
        <lane id=":J26_2_1" index="1" disallow="pedestrian" speed="11.25" length="9.86" shape="111.02,-31.45 112.87,-29.64 113.98,-28.19 114.63,-26.51 115.11,-23.98"/>
    </edge>
    <edge id=":J27_0" function="internal">
        <lane id=":J27_0_0" index="0" disallow="pedestrian" speed="7.55" length="7.51" shape="120.22,-11.87 120.73,-10.41 121.77,-9.10 123.34,-7.95 125.46,-6.95"/>
        <lane id=":J27_0_1" index="1" disallow="pedestrian" speed="9.17" length="11.32" shape="117.06,-11.38 117.82,-9.09 119.36,-7.06 121.68,-5.29 124.77,-3.79"/>
    </edge>
    <edge id=":J27_2" function="internal">
        <lane id=":J27_2_0" index="0" disallow="pedestrian" speed="13.89" length="10.76" shape="117.06,-11.38 118.26,-8.08 119.89,-5.85 120.94,-3.70 120.37,-0.64"/>
        <lane id=":J27_2_1" index="1" disallow="pedestrian" speed="13.34" length="10.76" shape="117.06,-11.38 117.69,-8.54 118.24,-6.53 118.29,-4.58 117.45,-1.93"/>
    </edge>
    <edge id=":J28_0" function="internal">
        <lane id=":J28_0_0" index="0" disallow="pedestrian" speed="8.16" length="1.47" shape="112.58,16.99 112.30,17.58 112.07,17.97 111.76,18.30 111.27,18.73"/>
        <lane id=":J28_0_1" index="1" disallow="pedestrian" speed="13.89" length="1.47" shape="109.65,15.70 109.56,15.89 109.48,16.02 109.38,16.13 109.21,16.28"/>
    </edge>
    <edge id=":J29_0" function="internal">
        <lane id=":J29_0_0" index="0" disallow="pedestrian" speed="13.89" length="11.12" shape="104.78,31.81 101.58,31.22 99.40,30.77 97.20,30.42 93.96,30.14"/>
        <lane id=":J29_0_1" index="1" disallow="pedestrian" speed="13.89" length="11.12" shape="105.31,28.65 102.01,28.05 99.76,27.59 97.50,27.24 94.17,26.95"/>
    </edge>
    <edge id=":J29_2" function="internal">
        <lane id=":J29_2_0" index="0" disallow="pedestrian" speed="11.78" length="10.96" shape="104.21,24.64 101.54,27.12 99.59,28.93 97.39,29.96 93.96,30.14"/>
        <lane id=":J29_2_1" index="1" disallow="pedestrian" speed="10.58" length="10.96" shape="102.16,22.18 100.06,24.23 98.56,25.80 96.87,26.75 94.17,26.95"/>
    </edge>
    <edge id=":J32_0" function="internal">
        <lane id=":J32_0_0" index="0" disallow="pedestrian" speed="6.43" length="3.00" shape="134.24,-52.62 133.65,-52.46 133.26,-52.29 132.92,-52.03 132.49,-51.60"/>
        <lane id=":J32_0_1" index="1" disallow="pedestrian" speed="8.62" length="3.00" shape="133.48,-55.72 132.36,-55.42 131.62,-55.11 130.98,-54.62 130.17,-53.80"/>
    </edge>
    <edge id=":J33_0" function="internal">
        <lane id=":J33_0_0" index="0" disallow="pedestrian" speed="7.93" length="2.07" shape="124.22,-42.86 123.94,-42.54 123.76,-42.31 123.63,-42.05 123.47,-41.65"/>
        <lane id=":J33_0_1" index="1" disallow="pedestrian" speed="10.72" length="2.07" shape="121.90,-45.05 121.36,-44.47 121.02,-44.02 120.77,-43.53 120.48,-42.78"/>
    </edge>
    <edge id=":J38_0" function="internal">
        <lane id=":J38_0_0" index="0" disallow="pedestrian" speed="13.89" length="0.30" shape="154.64,37.41 154.37,37.39"/>
        <lane id=":J38_0_1" index="1" disallow="pedestrian" speed="13.89" length="0.30" shape="154.90,34.22 154.57,34.20"/>
    </edge>
    <edge id=":J39_0" function="internal">
        <lane id=":J39_0_0" index="0" disallow="pedestrian" speed="13.89" length="0.33" shape="129.13,35.81 128.98,35.80 128.89,35.79 128.79,35.78 128.64,35.76"/>
        <lane id=":J39_0_1" index="1" disallow="pedestrian" speed="13.89" length="0.33" shape="129.33,32.62 129.28,32.62 129.25,32.61 129.21,32.61 129.17,32.60"/>
    </edge>
    <edge id=":J44_0" function="internal">
        <lane id=":J44_0_0" index="0" disallow="pedestrian" speed="6.63" length="8.50" shape="92.80,30.07 90.68,30.28 89.03,31.20 87.82,32.82 87.08,35.16"/>
    </edge>
    <edge id=":J44_1" function="internal">
        <lane id=":J44_1_0" index="0" disallow="pedestrian" speed="13.89" length="8.77" shape="92.80,30.07 90.24,29.90 88.49,29.80 86.74,29.76 84.18,29.81"/>
        <lane id=":J44_1_1" index="1" disallow="pedestrian" speed="13.89" length="8.77" shape="93.00,26.88 90.36,26.70 88.55,26.59 86.74,26.56 84.09,26.61"/>
    </edge>
    <edge id=":J45_0" function="internal">
        <lane id=":J45_0_0" index="0" disallow="pedestrian" speed="6.54" length="8.63" shape="76.33,35.39 75.87,33.02 74.82,31.31 73.17,30.28 70.93,29.92"/>
    </edge>
    <edge id=":J45_1" function="internal">
        <lane id=":J45_1_0" index="0" disallow="pedestrian" speed="13.89" length="8.45" shape="79.45,29.93 70.93,29.92"/>
        <lane id=":J45_1_1" index="1" disallow="pedestrian" speed="13.89" length="8.45" shape="79.36,26.74 70.97,26.72"/>
    </edge>
    <edge id=":J46_0" function="internal">
        <lane id=":J46_0_0" index="0" disallow="pedestrian" speed="13.89" length="3.14" shape="81.87,62.22 81.66,63.13 81.49,63.75 81.38,64.38 81.34,65.31"/>
    </edge>
    <edge id=":J46_1" function="internal">
        <lane id=":J46_1_0" index="0" disallow="pedestrian" speed="13.89" length="2.87" shape="78.14,65.29 77.99,62.43"/>
    </edge>
    <edge id=":J48_0" function="internal">
        <lane id=":J48_0_0" index="0" disallow="pedestrian" speed="5.82" length="9.50" shape="35.93,-52.19 38.68,-53.16 40.05,-54.59 40.04,-56.48 38.66,-58.82"/>
    </edge>
    <edge id=":J48_1" function="internal">
        <lane id=":J48_1_0" index="0" disallow="pedestrian" speed="13.89" length="18.62" shape="35.93,-52.19 41.50,-53.62 45.38,-54.67 49.26,-54.98 54.83,-54.19"/>
        <lane id=":J48_1_1" index="1" disallow="pedestrian" speed="13.89" length="18.62" shape="36.61,-49.06 41.78,-50.42 45.39,-51.44 49.00,-51.77 54.17,-51.05"/>
    </edge>
    <edge id=":J48_3" function="internal">
        <lane id=":J48_3_0" index="0" disallow="pedestrian" speed="13.89" length="16.86" shape="45.01,-44.88 44.76,-49.45 43.70,-52.48 41.70,-55.20 38.66,-58.82"/>
        <lane id=":J48_3_1" index="1" disallow="pedestrian" speed="13.89" length="16.86" shape="48.21,-44.81 47.97,-49.95 46.87,-53.40 44.72,-56.49 41.35,-60.57"/>
    </edge>
    <edge id=":J48_5" function="internal">
        <lane id=":J48_5_0" index="0" disallow="pedestrian" speed="6.50" length="10.27" shape="48.21,-44.81 48.64,-48.00 49.78,-50.10 51.63,-51.12 54.17,-51.05"/>
    </edge>
    <edge id=":J5_0" function="internal">
        <lane id=":J5_0_0" index="0" disallow="pedestrian" speed="12.06" length="10.07" shape="-2.99,-49.04 -0.36,-50.19 1.12,-51.57 2.24,-53.42 3.82,-55.99"/>
        <lane id=":J5_0_1" index="1" disallow="pedestrian" speed="13.22" length="12.16" shape="-2.00,-46.00 1.21,-47.35 3.07,-48.95 4.51,-51.11 6.46,-54.17"/>
    </edge>
    <edge id=":J5_2" function="internal">
        <lane id=":J5_2_0" index="0" disallow="pedestrian" speed="13.89" length="10.92" shape="-2.00,-46.00 1.08,-47.44 3.07,-48.92 5.12,-50.03 8.35,-50.36"/>
        <lane id=":J5_2_1" index="1" disallow="pedestrian" speed="13.89" length="10.92" shape="-2.00,-46.00 0.93,-46.88 3.01,-47.26 5.13,-47.30 8.21,-47.17"/>
    </edge>
    <edge id=":J50_0" function="internal">
        <lane id=":J50_0_0" index="0" disallow="pedestrian" speed="13.89" length="0.36" shape="139.38,-2.89 139.69,-2.82"/>
        <lane id=":J50_0_1" index="1" disallow="pedestrian" speed="13.89" length="0.36" shape="138.60,0.21 139.00,0.31"/>
    </edge>
    <edge id=":J51_0" function="internal">
        <lane id=":J51_0_0" index="0" disallow="pedestrian" speed="13.89" length="0.48" shape="154.18,0.37 154.28,0.39 154.34,0.40 154.41,0.41 154.51,0.43"/>
        <lane id=":J51_0_1" index="1" disallow="pedestrian" speed="13.89" length="0.48" shape="153.49,3.49 153.67,3.53 153.80,3.56 153.92,3.58 154.11,3.60"/>
    </edge>
    <edge id=":J53_0" function="internal">
        <lane id=":J53_0_0" index="0" disallow="pedestrian" speed="13.89" length="12.20" shape="-34.43,-38.99 -22.85,-42.63"/>
        <lane id=":J53_0_1" index="1" disallow="pedestrian" speed="13.89" length="12.20" shape="-33.56,-35.91 -21.87,-39.58"/>
    </edge>
    <edge id=":J53_2" function="internal">
        <lane id=":J53_2_0" index="0" disallow="pedestrian" speed="8.35" length="10.83" shape="-33.56,-35.91 -30.28,-36.55 -27.51,-36.48 -25.25,-35.68 -23.50,-34.16"/>
        <lane id=":J53_2_1" index="1" disallow="pedestrian" speed="7.63" length="8.94" shape="-33.56,-35.91 -31.69,-36.07 -29.81,-35.50 -27.91,-34.20 -26.00,-32.17"/>
    </edge>
    <edge id=":J54_0" function="internal">
        <lane id=":J54_0_0" index="0" disallow="pedestrian" speed="13.89" length="0.10" shape="64.25,-41.21 64.25,-41.21"/>
        <lane id=":J54_0_1" index="1" disallow="pedestrian" speed="13.89" length="0.10" shape="65.62,-38.31 65.62,-38.31"/>
    </edge>
    <edge id=":J55_0" function="internal">
        <lane id=":J55_0_0" index="0" disallow="pedestrian" speed="6.78" length="2.40" shape="41.46,13.80 40.61,13.18 40.10,12.63 39.79,11.96 39.52,10.94"/>
        <lane id=":J55_0_1" index="1" disallow="pedestrian" speed="4.27" length="2.40" shape="43.28,11.17 43.00,10.96 42.83,10.78 42.72,10.56 42.63,10.22"/>
    </edge>
    <edge id=":J56_0" function="internal">
        <lane id=":J56_0_0" index="0" disallow="pedestrian" speed="7.02" length="2.10" shape="35.14,-8.01 34.96,-8.92 34.93,-9.57 35.08,-10.20 35.44,-11.05"/>
        <lane id=":J56_0_1" index="1" disallow="pedestrian" speed="4.40" length="2.10" shape="38.26,-8.73 38.20,-9.03 38.19,-9.25 38.24,-9.46 38.36,-9.74"/>
    </edge>
    <edge id=":J57_0" function="internal">
        <lane id=":J57_0_0" index="0" disallow="pedestrian" speed="13.89" length="0.46" shape="-2.18,-7.45 -2.05,-7.30 -1.97,-7.18 -1.89,-7.07 -1.79,-6.89"/>
        <lane id=":J57_0_1" index="1" disallow="pedestrian" speed="13.89" length="0.46" shape="-4.68,-5.46 -4.64,-5.41 -4.61,-5.37 -4.58,-5.33 -4.55,-5.27"/>
    </edge>
    <edge id=":J8_0" function="internal">
        <lane id=":J8_0_0" index="0" disallow="pedestrian" speed="13.89" length="15.60" shape="21.80,28.49 6.28,28.21"/>
        <lane id=":J8_0_1" index="1" disallow="pedestrian" speed="13.89" length="15.60" shape="21.90,25.29 6.23,25.01"/>
    </edge>
    <edge id=":J8_2" function="internal">
        <lane id=":J8_2_0" index="0" disallow="pedestrian" speed="7.44" length="16.88" shape="12.51,17.46 14.44,22.09 14.05,25.42 11.33,27.46 6.28,28.21"/>
        <lane id=":J8_2_1" index="1" disallow="pedestrian" speed="5.71" length="9.36" shape="9.75,19.08 10.81,21.63 10.58,23.47 9.05,24.60 6.23,25.01"/>
    </edge>

    <edge id="-E67" from="J47" to="J46" priority="6">
        <lane id="-E67_0" index="0" allow="pedestrian" speed="13.89" length="25.90" width="2.00" shape="75.44,91.18 75.54,65.29"/>
        <lane id="-E67_1" index="1" disallow="pedestrian" speed="13.89" length="25.90" shape="78.04,91.19 78.14,65.29"/>
    </edge>
    <edge id="E14" from="J4" to="J53" priority="-1" shape="-88.45,-19.16 -39.65,-32.56 -35.14,-33.80 -30.42,-35.14">
        <lane id="E14_0" index="0" allow="pedestrian" speed="13.89" length="57.34" width="2.00" shape="-90.41,-26.29 -41.61,-39.70 -37.13,-40.93 -35.14,-41.49"/>
        <lane id="E14_1" index="1" disallow="pedestrian" speed="13.89" length="57.34" shape="-89.72,-23.79 -40.92,-37.19 -36.43,-38.42 -34.43,-38.99"/>
        <lane id="E14_2" index="2" disallow="pedestrian" speed="13.89" length="57.34" shape="-88.87,-20.70 -40.07,-34.10 -35.57,-35.34 -33.56,-35.91"/>
    </edge>
    <edge id="E14.56" from="J53" to="J5" priority="-1">
        <lane id="E14.56_0" index="0" allow="pedestrian" speed="13.89" length="20.88" width="2.00" shape="-23.65,-45.10 -3.78,-51.52"/>
        <lane id="E14.56_1" index="1" disallow="pedestrian" speed="13.89" length="20.88" shape="-22.85,-42.63 -2.99,-49.04"/>
        <lane id="E14.56_2" index="2" disallow="pedestrian" speed="13.89" length="20.88" shape="-21.87,-39.58 -2.00,-46.00"/>
    </edge>
    <edge id="E15" from="J8" to="J9" priority="-1" shape="10.40,23.34 -11.30,23.69 -88.21,24.89">
        <lane id="E15_0" index="0" allow="pedestrian" speed="13.89" length="94.43" width="2.00" shape="6.32,30.81 -11.18,31.09 -88.10,32.29"/>
        <lane id="E15_1" index="1" disallow="pedestrian" speed="13.89" length="94.43" shape="6.28,28.21 -11.22,28.49 -88.14,29.69"/>
        <lane id="E15_2" index="2" disallow="pedestrian" speed="13.89" length="94.43" shape="6.23,25.01 -11.27,25.29 -88.19,26.49"/>
    </edge>
    <edge id="E17" from="J11" to="J8" priority="-1" shape="66.17,25.06 34.52,24.08 24.53,23.77 10.40,23.34">
        <lane id="E17_0" index="0" allow="pedestrian" speed="13.89" length="30.96" width="2.00" shape="52.67,32.05 34.29,31.48 24.30,31.17 21.73,31.09"/>
        <lane id="E17_1" index="1" disallow="pedestrian" speed="13.89" length="30.96" shape="52.75,29.45 34.37,28.88 24.38,28.57 21.80,28.49"/>
        <lane id="E17_2" index="2" disallow="pedestrian" speed="13.89" length="30.96" shape="52.85,26.25 34.47,25.68 24.48,25.37 21.90,25.29"/>
    </edge>
    <edge id="E25" from="J5" to="J18" priority="-1">
        <lane id="E25_0" index="0" allow="pedestrian" speed="13.89" length="7.64" width="2.00" shape="1.68,-57.46 6.02,-63.75"/>
        <lane id="E25_1" index="1" disallow="pedestrian" speed="13.89" length="7.64" shape="3.82,-55.99 8.16,-62.27"/>
        <lane id="E25_2" index="2" disallow="pedestrian" speed="13.89" length="7.64" shape="6.46,-54.17 10.79,-60.46"/>
    </edge>
    <edge id="E26" from="J18" to="J19" priority="-1" effort="3">
        <lane id="E26_0" index="0" allow="pedestrian" speed="13.89" length="18.10" width="2.00" shape="6.20,-64.01 16.58,-78.84"/>
        <lane id="E26_1" index="1" disallow="pedestrian" speed="13.89" length="18.10" shape="8.33,-62.52 18.71,-77.35"/>
        <lane id="E26_2" index="2" disallow="pedestrian" speed="13.89" length="18.10" shape="10.95,-60.69 21.33,-75.52"/>
    </edge>
    <edge id="E29" from="J21" to="J22" priority="-1">
        <lane id="E29_0" index="0" allow="pedestrian" speed="13.89" length="37.08" width="2.00" shape="37.83,-125.17 43.14,-88.47"/>
        <lane id="E29_1" index="1" disallow="pedestrian" speed="13.89" length="37.08" shape="35.26,-124.80 40.56,-88.10"/>
        <lane id="E29_2" index="2" disallow="pedestrian" speed="13.89" length="37.08" shape="32.09,-124.34 37.40,-87.64"/>
    </edge>
    <edge id="E30" from="J22" to="J16" priority="-1">
        <lane id="E30_0" index="0" allow="pedestrian" speed="13.89" length="39.37" width="2.00" shape="43.44,-87.88 72.27,-61.07"/>
        <lane id="E30_1" index="1" disallow="pedestrian" speed="13.89" length="39.37" shape="41.67,-85.98 70.50,-59.16"/>
        <lane id="E30_2" index="2" disallow="pedestrian" speed="13.89" length="39.37" shape="39.49,-83.64 68.32,-56.82"/>
    </edge>
    <edge id="E32" from="J15" to="J23" priority="-1" shape="80.92,-43.80 92.05,-52.41 106.19,-62.28">
        <lane id="E32_0" index="0" allow="pedestrian" speed="13.89" length="21.43" width="2.00" shape="84.39,-55.84 87.67,-58.37 101.96,-68.35"/>
        <lane id="E32_1" index="1" disallow="pedestrian" speed="13.89" length="21.43" shape="85.98,-53.78 89.21,-56.28 103.44,-66.21"/>
        <lane id="E32_2" index="2" disallow="pedestrian" speed="13.89" length="21.43" shape="87.94,-51.25 91.10,-53.70 105.27,-63.59"/>
    </edge>
    <edge id="E33" from="J23" to="J24" priority="-1">
        <lane id="E33_0" index="0" allow="pedestrian" speed="13.89" length="53.61" width="2.00" shape="104.29,-69.43 156.11,-83.18"/>
        <lane id="E33_1" index="1" disallow="pedestrian" speed="13.89" length="53.61" shape="104.96,-66.92 156.78,-80.67"/>
        <lane id="E33_2" index="2" disallow="pedestrian" speed="13.89" length="53.61" shape="105.78,-63.82 157.60,-77.58"/>
    </edge>
    <edge id="E34" from="J15" to="J25" priority="-1" shape="80.92,-43.80 104.13,-38.89 99.52,-40.42">
        <lane id="E34_0" index="0" disallow="pedestrian" speed="13.89" length="11.65" shape="88.92,-47.22 100.38,-45.14"/>
        <lane id="E34_1" index="1" disallow="pedestrian" speed="13.89" length="11.65" shape="88.35,-44.08 99.81,-41.99"/>
    </edge>
    <edge id="E35" from="J25" to="J26" priority="-1" shape="99.52,-40.42 104.54,-35.40 112.96,-27.40">
        <lane id="E35_0" index="0" disallow="pedestrian" speed="13.89" length="14.44" shape="102.91,-43.81 107.89,-38.84 113.22,-33.77"/>
        <lane id="E35_1" index="1" disallow="pedestrian" speed="13.89" length="14.44" shape="100.65,-41.55 105.66,-36.55 111.02,-31.45"/>
    </edge>
    <edge id="E36" from="J26" to="J27" priority="-1">
        <lane id="E36_0" index="0" allow="pedestrian" speed="13.89" length="12.74" width="2.00" shape="120.84,-24.87 122.79,-12.27"/>
        <lane id="E36_1" index="1" disallow="pedestrian" speed="13.89" length="12.74" shape="118.27,-24.47 120.22,-11.87"/>
        <lane id="E36_2" index="2" disallow="pedestrian" speed="13.89" length="12.74" shape="115.11,-23.98 117.06,-11.38"/>
    </edge>
    <edge id="E37" from="J27" to="J28" priority="-1">
        <lane id="E37_0" index="0" disallow="pedestrian" speed="13.89" length="19.27" shape="120.37,-0.64 112.58,16.99"/>
        <lane id="E37_1" index="1" disallow="pedestrian" speed="13.89" length="19.27" shape="117.45,-1.93 109.65,15.70"/>
    </edge>
    <edge id="E38" from="J28" to="J29" priority="-1">
        <lane id="E38_0" index="0" disallow="pedestrian" speed="13.89" length="9.20" shape="111.27,18.73 104.21,24.64"/>
        <lane id="E38_1" index="1" disallow="pedestrian" speed="13.89" length="9.20" shape="109.21,16.28 102.16,22.18"/>
    </edge>
    <edge id="E41" from="J31" to="J32" priority="-1">
        <lane id="E41_0" index="0" allow="pedestrian" speed="13.89" length="27.98" width="2.00" shape="162.03,-56.81 134.87,-50.09"/>
        <lane id="E41_1" index="1" disallow="pedestrian" speed="13.89" length="27.98" shape="161.41,-59.34 134.24,-52.62"/>
        <lane id="E41_2" index="2" disallow="pedestrian" speed="13.89" length="27.98" shape="160.64,-62.44 133.48,-55.72"/>
    </edge>
    <edge id="E42" from="J32" to="J33" priority="-1">
        <lane id="E42_0" index="0" allow="pedestrian" speed="13.89" length="12.03" width="2.00" shape="134.38,-49.81 126.11,-41.07"/>
        <lane id="E42_1" index="1" disallow="pedestrian" speed="13.89" length="12.03" shape="132.49,-51.60 124.22,-42.86"/>
        <lane id="E42_2" index="2" disallow="pedestrian" speed="13.89" length="12.03" shape="130.17,-53.80 121.90,-45.05"/>
    </edge>
    <edge id="E43" from="J33" to="J26" priority="-1">
        <lane id="E43_0" index="0" allow="pedestrian" speed="13.89" length="8.60" width="2.00" shape="125.90,-40.74 122.87,-32.69"/>
        <lane id="E43_1" index="1" disallow="pedestrian" speed="13.89" length="8.60" shape="123.47,-41.65 120.43,-33.61"/>
        <lane id="E43_2" index="2" disallow="pedestrian" speed="13.89" length="8.60" shape="120.48,-42.78 117.44,-34.74"/>
    </edge>
    <edge id="E47" from="J37" to="J38" priority="-1">
        <lane id="E47_0" index="0" allow="pedestrian" speed="13.89" length="23.41" width="2.00" shape="177.77,41.89 154.43,40.00"/>
        <lane id="E47_1" index="1" disallow="pedestrian" speed="13.89" length="23.41" shape="177.98,39.30 154.64,37.41"/>
        <lane id="E47_2" index="2" disallow="pedestrian" speed="13.89" length="23.41" shape="178.24,36.11 154.90,34.22"/>
    </edge>
    <edge id="E48" from="J38" to="J39" priority="-1">
        <lane id="E48_0" index="0" allow="pedestrian" speed="13.89" length="25.29" width="2.00" shape="154.21,39.99 128.97,38.41"/>
        <lane id="E48_1" index="1" disallow="pedestrian" speed="13.89" length="25.29" shape="154.37,37.39 129.13,35.81"/>
        <lane id="E48_2" index="2" disallow="pedestrian" speed="13.89" length="25.29" shape="154.57,34.20 129.33,32.62"/>
    </edge>
    <edge id="E49" from="J39" to="J29" priority="-1" shape="129.43,31.02 121.64,29.73 95.76,25.45">
        <lane id="E49_0" index="0" allow="pedestrian" speed="13.89" length="24.18" width="2.00" shape="128.22,38.32 120.43,37.03 104.36,34.37"/>
        <lane id="E49_1" index="1" disallow="pedestrian" speed="13.89" length="24.18" shape="128.64,35.76 120.86,34.47 104.78,31.81"/>
        <lane id="E49_2" index="2" disallow="pedestrian" speed="13.89" length="24.18" shape="129.17,32.60 121.38,31.31 105.31,28.65"/>
    </edge>
    <edge id="E53" from="J29" to="J44" priority="-1">
        <lane id="E53_0" index="0" allow="pedestrian" speed="13.89" length="1.17" width="2.00" shape="93.80,32.74 92.63,32.67"/>
        <lane id="E53_1" index="1" disallow="pedestrian" speed="13.89" length="1.17" shape="93.96,30.14 92.80,30.07"/>
        <lane id="E53_2" index="2" disallow="pedestrian" speed="13.89" length="1.17" shape="94.17,26.95 93.00,26.88"/>
    </edge>
    <edge id="E54" from="J44" to="J45" priority="-1">
        <lane id="E54_0" index="0" allow="pedestrian" speed="13.89" length="4.73" width="2.00" shape="84.25,32.41 79.52,32.53"/>
        <lane id="E54_1" index="1" disallow="pedestrian" speed="13.89" length="4.73" shape="84.18,29.81 79.45,29.93"/>
        <lane id="E54_2" index="2" disallow="pedestrian" speed="13.89" length="4.73" shape="84.09,26.61 79.36,26.74"/>
    </edge>
    <edge id="E55" from="J45" to="J11" priority="-1">
        <lane id="E55_0" index="0" allow="pedestrian" speed="13.89" length="3.32" width="2.00" shape="70.90,32.52 67.59,32.48"/>
        <lane id="E55_1" index="1" disallow="pedestrian" speed="13.89" length="3.32" shape="70.93,29.92 67.62,29.88"/>
        <lane id="E55_2" index="2" disallow="pedestrian" speed="13.89" length="3.32" shape="70.97,26.72 67.65,26.68"/>
    </edge>
    <edge id="E59" from="J12" to="J48" priority="-1" shape="49.44,-28.65 49.93,-50.31">
        <lane id="E59_0" index="0" disallow="pedestrian" speed="13.89" length="7.24" shape="44.84,-37.64 45.01,-44.88"/>
        <lane id="E59_1" index="1" disallow="pedestrian" speed="13.89" length="7.24" shape="48.04,-37.57 48.21,-44.81"/>
    </edge>
    <edge id="E60" from="J16" to="J15" priority="-1" shape="67.42,-55.47 71.17,-52.23 73.18,-50.64 80.92,-43.80">
        <lane id="E60_0" index="0" allow="pedestrian" speed="13.89" length="2.92" width="2.00" shape="72.46,-60.90 74.69,-58.96"/>
        <lane id="E60_1" index="1" disallow="pedestrian" speed="13.89" length="2.92" shape="70.76,-58.93 72.97,-57.02"/>
        <lane id="E60_2" index="2" disallow="pedestrian" speed="13.89" length="2.92" shape="68.67,-56.51 70.85,-54.62"/>
    </edge>
    <edge id="E61" from="J5" to="J48" priority="-1" shape="2.63,-45.81 24.71,-44.84 49.93,-50.31">