<?xml version="1.0" encoding="UTF-8"?>

<!-- generated on 2025-05-01 01:31:51 by Eclipse SUMO duarouter Version 1.22.0
<duarouterConfiguration xmlns:xsi="http://www.w3.org/2001/XMLSchema-instance" xsi:noNamespaceSchemaLocation="http://sumo.dlr.de/xsd/duarouterConfiguration.xsd">

    <input>
        <net-file value="E:/python/trafik6/deneme_edge_effortlu.net.xml"/>
        <route-files value="E:/python/trafik6/trips.trips.xml"/>
        <weight-attribute value="effort"/>
    </input>

    <output>
        <output-file value="E:/python/trafik6/routes.rou.xml"/>
    </output>

</duarouterConfiguration>
-->

<routes xmlns:xsi="http://www.w3.org/2001/XMLSchema-instance" xsi:noNamespaceSchemaLocation="http://sumo.dlr.de/xsd/routes_file.xsd">
    <vehicle id="1" depart="2.00">
        <route edges="E35 E36 E37 E38 E53 E54 E55 E73 E74 E75 E59 E62 E34"/>
    </vehicle>
    <vehicle id="2" depart="4.00">
        <route edges="E65"/>
    </vehicle>
    <vehicle id="4" depart="8.00">
        <route edges="E43 E36 E37 E38 E53 E54 E55 E17 E15"/>
    </vehicle>
    <vehicle id="6" depart="12.00">
        <route edges="E14 E14.56 E61 E62 E32 E33"/>
    </vehicle>
    <vehicle id="11" depart="22.00">
        <route edges="E38 E53 E54 E55 E73 E74 E75 E59 E62 E32"/>
    </vehicle>
    <vehicle id="14" depart="28.00">
        <route edges="E71.19 E34 E35 E36 E37 E38 E53 E54 E55 E73 E74 E75 E59 E62"/>
    </vehicle>
    <vehicle id="18" depart="36.00">
        <route edges="E71 E71.19 E34 E35 E36 E37 E38 E53 E54 E55 E73 E74 E75 E59 E63"/>
    </vehicle>
    <vehicle id="25" depart="50.00">
        <route edges="E41 E42 E43 E36 E37 E38 E53 E54 E55 E73 E74 E75 E59 E62 E34"/>
    </vehicle>
    <vehicle id="26" depart="52.00">
        <route edges="E35 E36 E37 E38 E53 E54 E55 E73 E74 E75"/>
    </vehicle>
    <vehicle id="27" depart="54.00">
        <route edges="E61 E62"/>
    </vehicle>
    <vehicle id="28" depart="56.00">
        <route edges="E29 E30 E60 E34 E35 E36 E37 E38 E53 E65 E67"/>
    </vehicle>
    <vehicle id="31" depart="62.00">
        <route edges="E54 E55 E73 E74 E75 E59 E62 E34 E35 E36 E37 E38 E53 E65"/>
    </vehicle>
    <vehicle id="32" depart="64.00">
        <route edges="E71 E71.19 E34 E35 E36 E68 E69"/>
    </vehicle>
    <vehicle id="34" depart="68.00">
        <route edges="E37 E38 E53 E54 E55 E73 E74 E75 E59 E62 E34 E35 E36"/>
    </vehicle>
    <vehicle id="36" depart="72.00">
        <route edges="E73 E74 E75 E59 E62 E34 E35 E36 E37 E38"/>
    </vehicle>
    <vehicle id="38" depart="76.00">
        <route edges="E74 E75 E59 E62 E34 E35 E36 E37 E38 E53"/>
    </vehicle>
    <vehicle id="39" depart="78.00">
        <route edges="E35"/>
    </vehicle>
    <vehicle id="40" depart="80.00">
        <route edges="E54 E55 E73 E74 E75 E59 E62 E34 E35 E36"/>
    </vehicle>
    <vehicle id="41" depart="82.00">
        <route edges="E55 E73 E74"/>
    </vehicle>
    <vehicle id="42" depart="84.00">
        <route edges="E42 E43 E36 E37 E38 E53 E54 E55 E73 E74 E75 E59 E62 E34"/>
    </vehicle>
    <vehicle id="44" depart="88.00">
        <route edges="E17 E15"/>
    </vehicle>
    <vehicle id="50" depart="100.00">
        <route edges="-E67 E66 E55 E73 E74 E75 E59 E62 E34 E35 E36 E37 E38 E53 E65 E67"/>
    </vehicle>
    <vehicle id="51" depart="102.00">
        <route edges="E62 E34 E35 E36 E37 E38 E53 E54 E55 E73 E74 E75 E59"/>
    </vehicle>
    <vehicle id="52" depart="104.00">
        <route edges="E35 E36 E37 E38 E53 E54 E55 E73 E74 E75 E59 E63"/>
    </vehicle>
    <vehicle id="55" depart="110.00">
        <route edges="E73 E74 E75 E59 E62 E34 E35 E36"/>
    </vehicle>
    <vehicle id="56" depart="112.00">
        <route edges="E49 E53 E54 E55 E73 E74 E75 E59 E62 E32"/>
    </vehicle>
    <vehicle id="57" depart="114.00">
        <route edges="E74 E75 E71 E71.19"/>
    </vehicle>
    <vehicle id="58" depart="116.00">
        <route edges="E36 E37 E38 E53 E54 E55 E73 E74 E75 E59 E63"/>
    </vehicle>
    <vehicle id="62" depart="124.00">
        <route edges="-E67 E66 E55 E73 E74 E75 E59 E62 E34 E35 E36 E37 E38"/>
    </vehicle>
    <vehicle id="63" depart="126.00">
        <route edges="-E67 E66 E55 E73 E74 E75"/>
    </vehicle>
    <vehicle id="64" depart="128.00">
        <route edges="E73 E74 E75 E71"/>
    </vehicle>
    <vehicle id="65" depart="130.00">
        <route edges="E36 E37 E38 E53 E54 E55 E17"/>
    </vehicle>
    <vehicle id="66" depart="132.00">
        <route edges="E73 E74 E75"/>
    </vehicle>
    <vehicle id="68" depart="136.00">
        <route edges="E14.56 E61 E62 E34 E35 E36 E68"/>
    </vehicle>
    <vehicle id="71" depart="142.00">
        <route edges="E35 E36 E37 E38 E53 E54 E55 E73"/>
    </vehicle>
    <vehicle id="72" depart="144.00">
        <route edges="E43 E36 E37 E38 E53 E54 E55 E73 E74 E75 E59 E62 E34"/>
    </vehicle>
    <vehicle id="73" depart="146.00">
        <route edges="E54 E55 E73 E74 E75 E59 E62 E34 E35 E36 E37 E38 E53 E65 E67"/>
    </vehicle>
    <vehicle id="74" depart="148.00">
        <route edges="E30 E60 E34 E35 E36 E37 E38"/>
    </vehicle>
    <vehicle id="76" depart="152.00">
        <route edges="E47 E48 E49 E53 E54 E55 E73 E74 E75 E59"/>
    </vehicle>
    <vehicle id="80" depart="160.00">
        <route edges="E14.56 E61 E63"/>
    </vehicle>
    <vehicle id="82" depart="164.00">
        <route edges="E71.19 E34 E35 E36 E37 E38 E53 E54 E55 E17"/>
    </vehicle>
    <vehicle id="83" depart="166.00">
        <route edges="E34 E35 E36 E37 E38 E53 E65"/>
    </vehicle>
    <vehicle id="86" depart="172.00">
        <route edges="E48 E49 E53 E54 E55 E73 E74 E75 E59 E62 E34 E35 E36 E68 E69"/>
    </vehicle>
    <vehicle id="89" depart="178.00">
        <route edges="E43 E36 E37 E38 E53 E54"/>
    </vehicle>
    <vehicle id="90" depart="180.00">
        <route edges="E65"/>
    </vehicle>
    <vehicle id="92" depart="184.00">
        <route edges="E42"/>
    </vehicle>
    <vehicle id="93" depart="186.00">
        <route edges="E71.19 E34 E35"/>
    </vehicle>
    <vehicle id="94" depart="188.00">
        <route edges="E30 E60 E34 E35 E36 E37 E38 E53"/>
    </vehicle>
    <vehicle id="95" depart="190.00">
        <route edges="E43 E36"/>
    </vehicle>
    <vehicle id="96" depart="192.00">
        <route edges="E34 E35 E36 E37 E38 E53 E54 E55 E73 E74 E75"/>
    </vehicle>
    <vehicle id="97" depart="194.00">
        <route edges="E47 E48 E49 E53 E54 E55 E73 E74 E75 E71 E71.19"/>
    </vehicle>
    <vehicle id="98" depart="196.00">
        <route edges="E54 E55 E17 E15"/>
    </vehicle>
</routes>
