<?xml version="1.0" encoding="UTF-8"?>

<!-- generated on 2025-04-15 23:08:21.719518 by randomTrips.py v1_22_0+0002-63e50f52594
<configuration>
    <net-file value="E:/python/trafik2/mymap.net.xml"/>
    <route-file value="E:/python/trafik2/custom_routes.rou.xml"/>
    <validate value="True"/>
    <end value="600.0"/>
    <period value="1.2"/>
</configuration>
-->

<!-- generated on 2025-04-15 23:08:21 by Eclipse SUMO duarouter Version 1.22.0
<duarouterConfiguration xmlns:xsi="http://www.w3.org/2001/XMLSchema-instance" xsi:noNamespaceSchemaLocation="http://sumo.dlr.de/xsd/duarouterConfiguration.xsd">

    <input>
        <net-file value="E:/python/trafik2/mymap.net.xml"/>
        <route-files value="trips.trips.xml"/>
    </input>

    <output>
        <output-file value="E:/python/trafik2/custom_routes.rou.xml"/>
        <alternatives-output value="NUL"/>
    </output>

    <time>
        <begin value="0.0"/>
        <end value="600.0"/>
    </time>

    <report>
        <no-warnings value="true"/>
        <ignore-errors value="true"/>
        <no-step-log value="true"/>
    </report>

</duarouterConfiguration>
-->

<routes xmlns:xsi="http://www.w3.org/2001/XMLSchema-instance" xsi:noNamespaceSchemaLocation="http://sumo.dlr.de/xsd/routes_file.xsd">
    <vehicle id="1" depart="1.20">
        <route edges="-E4 -E2 -E1"/>
    </vehicle>
    <vehicle id="2" depart="2.40">
        <route edges="E0 E2 E4"/>
    </vehicle>
    <vehicle id="4" depart="4.80">
        <route edges="-E5 -E2 -E0"/>
    </vehicle>
    <vehicle id="6" depart="7.20">
        <route edges="-E2 -E1"/>
    </vehicle>
    <vehicle id="7" depart="8.40">
        <route edges="E0 E3"/>
    </vehicle>
    <vehicle id="9" depart="10.80">
        <route edges="E1 -E0"/>
    </vehicle>
    <vehicle id="10" depart="12.00">
        <route edges="E1 E2 E4"/>
    </vehicle>
    <vehicle id="11" depart="13.20">
        <route edges="-E4 -E2 -E1"/>
    </vehicle>
    <vehicle id="13" depart="15.60">
        <route edges="-E2 -E0"/>
    </vehicle>
    <vehicle id="14" depart="16.80">
        <route edges="E1 E3"/>
    </vehicle>
    <vehicle id="15" depart="18.00">
        <route edges="E1 E2 E4"/>
    </vehicle>
    <vehicle id="17" depart="20.40">
        <route edges="-E5 -E2 E3"/>
    </vehicle>
    <vehicle id="18" depart="21.60">
        <route edges="E1 E3"/>
    </vehicle>
    <vehicle id="19" depart="22.80">
        <route edges="E1 E3"/>
    </vehicle>
    <vehicle id="22" depart="26.40">
        <route edges="-E2 -E1"/>
    </vehicle>
    <vehicle id="23" depart="27.60">
        <route edges="-E2"/>
    </vehicle>
    <vehicle id="25" depart="30.00">
        <route edges="-E4 -E2 -E1"/>
    </vehicle>
    <vehicle id="26" depart="31.20">
        <route edges="-E4 E6"/>
    </vehicle>
    <vehicle id="27" depart="32.40">
        <route edges="E0 E3"/>
    </vehicle>
    <vehicle id="28" depart="33.60">
        <route edges="-E3 E2 E4"/>
    </vehicle>
    <vehicle id="29" depart="34.80">
        <route edges="-E3 E2"/>
    </vehicle>
    <vehicle id="30" depart="36.00">
        <route edges="E2 E4"/>
    </vehicle>
    <vehicle id="31" depart="37.20">
        <route edges="-E6 E4"/>
    </vehicle>
    <vehicle id="32" depart="38.40">
        <route edges="E1 E2 E5"/>
    </vehicle>
    <vehicle id="33" depart="39.60">
        <route edges="-E3 -E0"/>
    </vehicle>
    <vehicle id="34" depart="40.80">
        <route edges="-E4 -E2"/>
    </vehicle>
    <vehicle id="35" depart="42.00">
        <route edges="-E3 E2 E6"/>
    </vehicle>
    <vehicle id="37" depart="44.40">
        <route edges="E0 E2"/>
    </vehicle>
    <vehicle id="38" depart="45.60">
        <route edges="E2"/>
    </vehicle>
    <vehicle id="39" depart="46.80">
        <route edges="-E4 -E2 -E1"/>
    </vehicle>
    <vehicle id="40" depart="48.00">
        <route edges="-E6 -E2"/>
    </vehicle>
    <vehicle id="42" depart="50.40">
        <route edges="-E5 -E2 -E1"/>
    </vehicle>
    <vehicle id="44" depart="52.80">
        <route edges="-E2 -E0"/>
    </vehicle>
    <vehicle id="46" depart="55.20">
        <route edges="E1 E2"/>
    </vehicle>
    <vehicle id="49" depart="58.80">
        <route edges="E2 E5"/>
    </vehicle>
    <vehicle id="51" depart="61.20">
        <route edges="E0 E3"/>
    </vehicle>
    <vehicle id="54" depart="64.80">
        <route edges="-E5 E6"/>
    </vehicle>
    <vehicle id="56" depart="67.20">
        <route edges="-E6 -E2 -E1"/>
    </vehicle>
    <vehicle id="57" depart="68.40">
        <route edges="E2 E5"/>
    </vehicle>
    <vehicle id="59" depart="70.80">
        <route edges="-E6 -E2 -E1"/>
    </vehicle>
    <vehicle id="60" depart="72.00">
        <route edges="E1 E3"/>
    </vehicle>
    <vehicle id="61" depart="73.20">
        <route edges="E1 E3"/>
    </vehicle>
    <vehicle id="62" depart="74.40">
        <route edges="-E2"/>
    </vehicle>
    <vehicle id="64" depart="76.80">
        <route edges="E2 E5"/>
    </vehicle>
    <vehicle id="65" depart="78.00">
        <route edges="-E4 -E2 -E0"/>
    </vehicle>
    <vehicle id="66" depart="79.20">
        <route edges="E2 E6"/>
    </vehicle>
    <vehicle id="70" depart="84.00">
        <route edges="-E5 -E2 E3"/>
    </vehicle>
    <vehicle id="71" depart="85.20">
        <route edges="-E4 E5"/>
    </vehicle>
    <vehicle id="72" depart="86.40">
        <route edges="-E5 -E2 -E1"/>
    </vehicle>
    <vehicle id="73" depart="87.60">
        <route edges="-E6 E4"/>
    </vehicle>
    <vehicle id="75" depart="90.00">
        <route edges="E2 E4"/>
    </vehicle>
    <vehicle id="76" depart="91.20">
        <route edges="-E5 -E2 E3"/>
    </vehicle>
    <vehicle id="77" depart="92.40">
        <route edges="-E2 -E1"/>
    </vehicle>
    <vehicle id="78" depart="93.60">
        <route edges="-E4 -E2 E3"/>
    </vehicle>
    <vehicle id="79" depart="94.80">
        <route edges="-E3 -E1"/>
    </vehicle>
    <vehicle id="81" depart="97.20">
        <route edges="-E3 E2 E6"/>
    </vehicle>
    <vehicle id="82" depart="98.40">
        <route edges="E1 -E0"/>
    </vehicle>
    <vehicle id="83" depart="99.60">
        <route edges="-E3 E2 E4"/>
    </vehicle>
    <vehicle id="84" depart="100.80">
        <route edges="-E3 -E1"/>
    </vehicle>
    <vehicle id="90" depart="108.00">
        <route edges="E0 E2 E4"/>
    </vehicle>
    <vehicle id="92" depart="110.40">
        <route edges="-E5 -E2"/>
    </vehicle>
    <vehicle id="94" depart="112.80">
        <route edges="-E3 E2"/>
    </vehicle>
    <vehicle id="95" depart="114.00">
        <route edges="-E5 -E2"/>
    </vehicle>
    <vehicle id="96" depart="115.20">
        <route edges="-E3 E2 E6"/>
    </vehicle>
    <vehicle id="98" depart="117.60">
        <route edges="-E6 -E2 -E0"/>
    </vehicle>
    <vehicle id="99" depart="118.80">
        <route edges="E2 E5"/>
    </vehicle>
    <vehicle id="100" depart="120.00">
        <route edges="E2 E6"/>
    </vehicle>
    <vehicle id="102" depart="122.40">
        <route edges="-E5 -E2 -E1"/>
    </vehicle>
    <vehicle id="103" depart="123.60">
        <route edges="-E5 -E2 -E0"/>
    </vehicle>
    <vehicle id="104" depart="124.80">
        <route edges="-E5 E6"/>
    </vehicle>
    <vehicle id="105" depart="126.00">
        <route edges="-E4 E5"/>
    </vehicle>
    <vehicle id="107" depart="128.40">
        <route edges="E2 E6"/>
    </vehicle>
    <vehicle id="108" depart="129.60">
        <route edges="-E6 E4"/>
    </vehicle>
    <vehicle id="111" depart="133.20">
        <route edges="-E6 E4"/>
    </vehicle>
    <vehicle id="112" depart="134.40">
        <route edges="-E2 E3"/>
    </vehicle>
    <vehicle id="113" depart="135.60">
        <route edges="-E6 E5"/>
    </vehicle>
    <vehicle id="114" depart="136.80">
        <route edges="-E3 E2 E6"/>
    </vehicle>
    <vehicle id="115" depart="138.00">
        <route edges="-E2 -E1"/>
    </vehicle>
    <vehicle id="116" depart="139.20">
        <route edges="-E6 E4"/>
    </vehicle>
    <vehicle id="117" depart="140.40">
        <route edges="-E3 -E0"/>
    </vehicle>
    <vehicle id="119" depart="142.80">
        <route edges="-E6 -E2 E3"/>
    </vehicle>
    <vehicle id="120" depart="144.00">
        <route edges="-E5 -E2 E3"/>
    </vehicle>
    <vehicle id="122" depart="146.40">
        <route edges="-E3 E2 E4"/>
    </vehicle>
    <vehicle id="123" depart="147.60">
        <route edges="-E3 E2"/>
    </vehicle>
    <vehicle id="125" depart="150.00">
        <route edges="-E4 E5"/>
    </vehicle>
    <vehicle id="127" depart="152.40">
        <route edges="E2 E6"/>
    </vehicle>
    <vehicle id="128" depart="153.60">
        <route edges="-E2 -E1"/>
    </vehicle>
    <vehicle id="129" depart="154.80">
        <route edges="-E4 E6"/>
    </vehicle>
    <vehicle id="130" depart="156.00">
        <route edges="E2 E6"/>
    </vehicle>
    <vehicle id="131" depart="157.20">
        <route edges="-E4 -E2 -E1"/>
    </vehicle>
    <vehicle id="132" depart="158.40">
        <route edges="E1 E2 E4"/>
    </vehicle>
    <vehicle id="136" depart="163.20">
        <route edges="E0 E2 E6"/>
    </vehicle>
    <vehicle id="137" depart="164.40">
        <route edges="-E3 -E0"/>
    </vehicle>
    <vehicle id="138" depart="165.60">
        <route edges="-E2 E3"/>
    </vehicle>
    <vehicle id="139" depart="166.80">
        <route edges="-E4 -E2 E3"/>
    </vehicle>
    <vehicle id="140" depart="168.00">
        <route edges="E0 -E1"/>
    </vehicle>
    <vehicle id="142" depart="170.40">
        <route edges="-E5 E6"/>
    </vehicle>
    <vehicle id="143" depart="171.60">
        <route edges="E1 -E0"/>
    </vehicle>
    <vehicle id="144" depart="172.80">
        <route edges="-E5 -E2"/>
    </vehicle>
    <vehicle id="147" depart="176.40">
        <route edges="E0 E3"/>
    </vehicle>
    <vehicle id="148" depart="177.60">
        <route edges="-E5 -E2 -E0"/>
    </vehicle>
    <vehicle id="151" depart="181.20">
        <route edges="E1 E3"/>
    </vehicle>
    <vehicle id="152" depart="182.40">
        <route edges="-E3 -E1"/>
    </vehicle>
    <vehicle id="153" depart="183.60">
        <route edges="-E4 E6"/>
    </vehicle>
    <vehicle id="154" depart="184.80">
        <route edges="E1 E2 E5"/>
    </vehicle>
    <vehicle id="156" depart="187.20">
        <route edges="-E3 -E0"/>
    </vehicle>
    <vehicle id="157" depart="188.40">
        <route edges="E1 E2 E6"/>
    </vehicle>
    <vehicle id="158" depart="189.60">
        <route edges="-E5 -E2 E3"/>
    </vehicle>
    <vehicle id="159" depart="190.80">
        <route edges="-E3 E2 E6"/>
    </vehicle>
    <vehicle id="160" depart="192.00">
        <route edges="E1 E2 E6"/>
    </vehicle>
    <vehicle id="161" depart="193.20">
        <route edges="E1 E2 E6"/>
    </vehicle>
    <vehicle id="163" depart="195.60">
        <route edges="-E4 E6"/>
    </vehicle>
    <vehicle id="164" depart="196.80">
        <route edges="E1 E2 E5"/>
    </vehicle>
    <vehicle id="166" depart="199.20">
        <route edges="E1 -E0"/>
    </vehicle>
    <vehicle id="167" depart="200.40">
        <route edges="E1 E2 E5"/>
    </vehicle>
    <vehicle id="168" depart="201.60">
        <route edges="-E3 E2 E5"/>
    </vehicle>
    <vehicle id="169" depart="202.80">
        <route edges="-E5 -E2"/>
    </vehicle>
    <vehicle id="171" depart="205.20">
        <route edges="-E2 -E1"/>
    </vehicle>
    <vehicle id="172" depart="206.40">
        <route edges="-E4 E5"/>
    </vehicle>
    <vehicle id="174" depart="208.80">
        <route edges="E0 E2"/>
    </vehicle>
    <vehicle id="181" depart="217.20">
        <route edges="-E6 -E2 E3"/>
    </vehicle>
    <vehicle id="182" depart="218.40">
        <route edges="-E5 -E2 E3"/>
    </vehicle>
    <vehicle id="185" depart="222.00">
        <route edges="-E6 E4"/>
    </vehicle>
    <vehicle id="186" depart="223.20">
        <route edges="E0 E2 E4"/>
    </vehicle>
    <vehicle id="187" depart="224.40">
        <route edges="-E4 -E2 -E0"/>
    </vehicle>
    <vehicle id="189" depart="226.80">
        <route edges="-E4 E5"/>
    </vehicle>
    <vehicle id="192" depart="230.40">
        <route edges="-E5 -E2"/>
    </vehicle>
    <vehicle id="193" depart="231.60">
        <route edges="-E3 E2"/>
    </vehicle>
    <vehicle id="194" depart="232.80">
        <route edges="E2 E4"/>
    </vehicle>
    <vehicle id="196" depart="235.20">
        <route edges="-E4 -E2 E3"/>
    </vehicle>
    <vehicle id="197" depart="236.40">
        <route edges="-E2"/>
    </vehicle>
    <vehicle id="198" depart="237.60">
        <route edges="-E5 -E2 E3"/>
    </vehicle>
    <vehicle id="199" depart="238.80">
        <route edges="E0 E2"/>
    </vehicle>
    <vehicle id="200" depart="240.00">
        <route edges="-E5 -E2 -E1"/>
    </vehicle>
    <vehicle id="201" depart="241.20">
        <route edges="-E5 E6"/>
    </vehicle>
    <vehicle id="203" depart="243.60">
        <route edges="-E2 E3"/>
    </vehicle>
    <vehicle id="205" depart="246.00">
        <route edges="E1 E2 E5"/>
    </vehicle>
    <vehicle id="206" depart="247.20">
        <route edges="E0 -E1"/>
    </vehicle>
    <vehicle id="207" depart="248.40">
        <route edges="-E3 -E0"/>
    </vehicle>
    <vehicle id="208" depart="249.60">
        <route edges="-E3 E2"/>
    </vehicle>
    <vehicle id="209" depart="250.80">
        <route edges="E1 -E0"/>
    </vehicle>
    <vehicle id="210" depart="252.00">
        <route edges="-E5 E4"/>
    </vehicle>
    <vehicle id="211" depart="253.20">
        <route edges="-E3 E2 E4"/>
    </vehicle>
    <vehicle id="212" depart="254.40">
        <route edges="-E5 -E2 -E1"/>
    </vehicle>
    <vehicle id="214" depart="256.80">
        <route edges="E1 E2 E5"/>
    </vehicle>
    <vehicle id="216" depart="259.20">
        <route edges="-E3 E2 E6"/>
    </vehicle>
    <vehicle id="217" depart="260.40">
        <route edges="-E6 -E2 -E0"/>
    </vehicle>
    <vehicle id="218" depart="261.60">
        <route edges="-E3 E2 E5"/>
    </vehicle>
    <vehicle id="220" depart="264.00">
        <route edges="E0 E2 E6"/>
    </vehicle>
    <vehicle id="223" depart="267.60">
        <route edges="E0 E3"/>
    </vehicle>
    <vehicle id="224" depart="268.80">
        <route edges="E1 E3"/>
    </vehicle>
    <vehicle id="225" depart="270.00">
        <route edges="E2 E4"/>
    </vehicle>
    <vehicle id="226" depart="271.20">
        <route edges="-E5 -E2"/>
    </vehicle>
    <vehicle id="227" depart="272.40">
        <route edges="-E3 E2 E4"/>
    </vehicle>
    <vehicle id="228" depart="273.60">
        <route edges="E1 E3"/>
    </vehicle>
    <vehicle id="230" depart="276.00">
        <route edges="-E2"/>
    </vehicle>
    <vehicle id="231" depart="277.20">
        <route edges="-E4 -E2"/>
    </vehicle>
    <vehicle id="232" depart="278.40">
        <route edges="-E6 -E2 -E1"/>
    </vehicle>
    <vehicle id="233" depart="279.60">
        <route edges="-E3 E2 E4"/>
    </vehicle>
    <vehicle id="235" depart="282.00">
        <route edges="-E5 -E2 E3"/>
    </vehicle>
    <vehicle id="236" depart="283.20">
        <route edges="-E5 -E2 -E1"/>
    </vehicle>
    <vehicle id="237" depart="284.40">
        <route edges="-E5 E6"/>
    </vehicle>
    <vehicle id="238" depart="285.60">
        <route edges="-E6 E4"/>
    </vehicle>
    <vehicle id="239" depart="286.80">
        <route edges="E1 E2 E5"/>
    </vehicle>
    <vehicle id="240" depart="288.00">
        <route edges="-E5 -E2 -E0"/>
    </vehicle>
    <vehicle id="241" depart="289.20">
        <route edges="-E4 E5"/>
    </vehicle>
    <vehicle id="242" depart="290.40">
        <route edges="E1 E2 E6"/>
    </vehicle>
    <vehicle id="243" depart="291.60">
        <route edges="-E5 E4"/>
    </vehicle>
    <vehicle id="244" depart="292.80">
        <route edges="-E6 -E2 E3"/>
    </vehicle>
    <vehicle id="245" depart="294.00">
        <route edges="-E3 -E1"/>
    </vehicle>
    <vehicle id="246" depart="295.20">
        <route edges="-E5 -E2 -E0"/>
    </vehicle>
    <vehicle id="248" depart="297.60">
        <route edges="-E5 -E2 -E1"/>
    </vehicle>
    <vehicle id="249" depart="298.80">
        <route edges="-E5 -E2 -E1"/>
    </vehicle>
    <vehicle id="250" depart="300.00">
        <route edges="-E6 -E2 -E0"/>
    </vehicle>
    <vehicle id="251" depart="301.20">
        <route edges="-E5 -E2 E3"/>
    </vehicle>
    <vehicle id="253" depart="303.60">
        <route edges="-E3 E2"/>
    </vehicle>
    <vehicle id="256" depart="307.20">
        <route edges="E1 E2"/>
    </vehicle>
    <vehicle id="257" depart="308.40">
        <route edges="E1 E2 E5"/>
    </vehicle>
    <vehicle id="258" depart="309.60">
        <route edges="-E4 -E2 -E0"/>
    </vehicle>
    <vehicle id="259" depart="310.80">
        <route edges="-E2 E3"/>
    </vehicle>
    <vehicle id="261" depart="313.20">
        <route edges="E0 E2 E5"/>
    </vehicle>
    <vehicle id="262" depart="314.40">
        <route edges="E0 E2 E5"/>
    </vehicle>
    <vehicle id="264" depart="316.80">
        <route edges="-E2 -E1"/>
    </vehicle>
    <vehicle id="265" depart="318.00">
        <route edges="-E3 E2 E4"/>
    </vehicle>
    <vehicle id="266" depart="319.20">
        <route edges="-E6 -E2 -E1"/>
    </vehicle>
    <vehicle id="267" depart="320.40">
        <route edges="E0 E2 E5"/>
    </vehicle>
    <vehicle id="270" depart="324.00">
        <route edges="E1 E2 E6"/>
    </vehicle>
    <vehicle id="271" depart="325.20">
        <route edges="-E2 -E0"/>
    </vehicle>
    <vehicle id="273" depart="327.60">
        <route edges="E2"/>
    </vehicle>
    <vehicle id="275" depart="330.00">
        <route edges="E0 E2 E4"/>
    </vehicle>
    <vehicle id="277" depart="332.40">
        <route edges="E1 E3"/>
    </vehicle>
    <vehicle id="280" depart="336.00">
        <route edges="-E5 -E2"/>
    </vehicle>
    <vehicle id="281" depart="337.20">
        <route edges="-E6 -E2"/>
    </vehicle>
    <vehicle id="282" depart="338.40">
        <route edges="E1 E2 E5"/>
    </vehicle>
    <vehicle id="284" depart="340.80">
        <route edges="E0 E2 E5"/>
    </vehicle>
    <vehicle id="285" depart="342.00">
        <route edges="E0 E2"/>
    </vehicle>
    <vehicle id="286" depart="343.20">
        <route edges="E0 E2 E6"/>
    </vehicle>
    <vehicle id="287" depart="344.40">
        <route edges="-E4 E5"/>
    </vehicle>
    <vehicle id="289" depart="346.80">
        <route edges="-E5 E4"/>
    </vehicle>
    <vehicle id="290" depart="348.00">
        <route edges="-E4 E5"/>
    </vehicle>
    <vehicle id="291" depart="349.20">
        <route edges="E1 -E0"/>
    </vehicle>
    <vehicle id="293" depart="351.60">
        <route edges="-E5 -E2 E3"/>
    </vehicle>
    <vehicle id="294" depart="352.80">
        <route edges="-E5 -E2 -E0"/>
    </vehicle>
    <vehicle id="296" depart="355.20">
        <route edges="-E3 E2 E5"/>
    </vehicle>
    <vehicle id="297" depart="356.40">
        <route edges="-E4 E6"/>
    </vehicle>
    <vehicle id="302" depart="362.40">
        <route edges="E0 E2 E4"/>
    </vehicle>
    <vehicle id="304" depart="364.80">
        <route edges="-E2 -E1"/>
    </vehicle>
    <vehicle id="310" depart="372.00">
        <route edges="-E4 -E2 -E0"/>
    </vehicle>
    <vehicle id="311" depart="373.20">
        <route edges="-E3 -E0"/>
    </vehicle>
    <vehicle id="312" depart="374.40">
        <route edges="-E6 E5"/>
    </vehicle>
    <vehicle id="313" depart="375.60">
        <route edges="-E3 -E1"/>
    </vehicle>
    <vehicle id="314" depart="376.80">
        <route edges="-E5 E4"/>
    </vehicle>
    <vehicle id="316" depart="379.20">
        <route edges="-E4 -E2 -E0"/>
    </vehicle>
    <vehicle id="317" depart="380.40">
        <route edges="-E3 -E1"/>
    </vehicle>
    <vehicle id="318" depart="381.60">
        <route edges="-E3 -E0"/>
    </vehicle>
    <vehicle id="319" depart="382.80">
        <route edges="-E6 -E2"/>
    </vehicle>
    <vehicle id="321" depart="385.20">
        <route edges="E0 -E1"/>
    </vehicle>
    <vehicle id="322" depart="386.40">
        <route edges="E1 E2"/>
    </vehicle>
    <vehicle id="323" depart="387.60">
        <route edges="E1 E3"/>
    </vehicle>
    <vehicle id="325" depart="390.00">
        <route edges="-E3 -E0"/>
    </vehicle>
    <vehicle id="326" depart="391.20">
        <route edges="E2"/>
    </vehicle>
    <vehicle id="327" depart="392.40">
        <route edges="E1 E2"/>
    </vehicle>
    <vehicle id="329" depart="394.80">
        <route edges="-E2 -E1"/>
    </vehicle>
    <vehicle id="330" depart="396.00">
        <route edges="-E6 -E2"/>
    </vehicle>
    <vehicle id="332" depart="398.40">
        <route edges="E1 E3"/>
    </vehicle>
    <vehicle id="337" depart="404.40">
        <route edges="-E6 -E2 E3"/>
    </vehicle>
    <vehicle id="338" depart="405.60">
        <route edges="E0 E2 E6"/>
    </vehicle>
    <vehicle id="339" depart="406.80">
        <route edges="-E3 -E1"/>
    </vehicle>
    <vehicle id="340" depart="408.00">
        <route edges="E0 -E1"/>
    </vehicle>
    <vehicle id="341" depart="409.20">
        <route edges="-E3 -E0"/>
    </vehicle>
    <vehicle id="343" depart="411.60">
        <route edges="-E6 -E2"/>
    </vehicle>
    <vehicle id="344" depart="412.80">
        <route edges="-E3 E2 E4"/>
    </vehicle>
    <vehicle id="345" depart="414.00">
        <route edges="E0 E2"/>
    </vehicle>
    <vehicle id="346" depart="415.20">
        <route edges="E0 E2 E6"/>
    </vehicle>
    <vehicle id="347" depart="416.40">
        <route edges="E1 E2 E4"/>
    </vehicle>
    <vehicle id="348" depart="417.60">
        <route edges="E0 E2 E6"/>
    </vehicle>
    <vehicle id="349" depart="418.80">
        <route edges="-E5 -E2 E3"/>
    </vehicle>
    <vehicle id="350" depart="420.00">
        <route edges="E0 E2 E6"/>
    </vehicle>
    <vehicle id="351" depart="421.20">
        <route edges="E1 -E0"/>
    </vehicle>
    <vehicle id="353" depart="423.60">
        <route edges="E0 E3"/>
    </vehicle>
    <vehicle id="354" depart="424.80">
        <route edges="-E4 -E2 -E0"/>
    </vehicle>
    <vehicle id="355" depart="426.00">
        <route edges="E0 E2 E4"/>
    </vehicle>
    <vehicle id="357" depart="428.40">
        <route edges="-E5 -E2 -E0"/>
    </vehicle>
    <vehicle id="359" depart="430.80">
        <route edges="-E4 -E2"/>
    </vehicle>
    <vehicle id="361" depart="433.20">
        <route edges="E1 E3"/>
    </vehicle>
    <vehicle id="362" depart="434.40">
        <route edges="E2 E6"/>
    </vehicle>
    <vehicle id="365" depart="438.00">
        <route edges="-E5 E4"/>
    </vehicle>
    <vehicle id="367" depart="440.40">
        <route edges="-E6 E4"/>
    </vehicle>
    <vehicle id="368" depart="441.60">
        <route edges="-E5 -E2 -E0"/>
    </vehicle>
    <vehicle id="369" depart="442.80">
        <route edges="-E4 -E2"/>
    </vehicle>
    <vehicle id="370" depart="444.00">
        <route edges="E0 E2 E5"/>
    </vehicle>
    <vehicle id="372" depart="446.40">
        <route edges="-E4 E6"/>
    </vehicle>
    <vehicle id="373" depart="447.60">
        <route edges="E1 E3"/>
    </vehicle>
    <vehicle id="374" depart="448.80">
        <route edges="-E5 -E2"/>
    </vehicle>
    <vehicle id="375" depart="450.00">
        <route edges="-E4 E6"/>
    </vehicle>
    <vehicle id="376" depart="451.20">
        <route edges="-E5 -E2 E3"/>
    </vehicle>
    <vehicle id="377" depart="452.40">
        <route edges="E2 E4"/>
    </vehicle>
    <vehicle id="380" depart="456.00">
        <route edges="E1 E2 E4"/>
    </vehicle>
    <vehicle id="383" depart="459.60">
        <route edges="-E5 E4"/>
    </vehicle>
    <vehicle id="385" depart="462.00">
        <route edges="-E6 -E2 -E1"/>
    </vehicle>
    <vehicle id="387" depart="464.40">
        <route edges="-E6 -E2 -E0"/>
    </vehicle>
    <vehicle id="388" depart="465.60">
        <route edges="E2 E6"/>
    </vehicle>
    <vehicle id="389" depart="466.80">
        <route edges="-E5 -E2 -E0"/>
    </vehicle>
    <vehicle id="390" depart="468.00">
        <route edges="E1 E2"/>
    </vehicle>
    <vehicle id="391" depart="469.20">
        <route edges="E0 E3"/>
    </vehicle>
    <vehicle id="392" depart="470.40">
        <route edges="-E4 E5"/>
    </vehicle>
    <vehicle id="396" depart="475.20">
        <route edges="E2 E5"/>
    </vehicle>
    <vehicle id="397" depart="476.40">
        <route edges="-E4 E5"/>
    </vehicle>
    <vehicle id="398" depart="477.60">
        <route edges="-E5 E6"/>
    </vehicle>
    <vehicle id="399" depart="478.80">
        <route edges="-E6 E5"/>
    </vehicle>
    <vehicle id="400" depart="480.00">
        <route edges="-E4 -E2"/>
    </vehicle>
    <vehicle id="402" depart="482.40">
        <route edges="-E5 -E2 -E1"/>
    </vehicle>
    <vehicle id="403" depart="483.60">
        <route edges="-E6 -E2"/>
    </vehicle>
    <vehicle id="404" depart="484.80">
        <route edges="-E6 -E2 E3"/>
    </vehicle>
    <vehicle id="405" depart="486.00">
        <route edges="-E5 -E2"/>
    </vehicle>
    <vehicle id="406" depart="487.20">
        <route edges="-E3 E2 E4"/>
    </vehicle>
    <vehicle id="407" depart="488.40">
        <route edges="-E6 -E2 -E1"/>
    </vehicle>
    <vehicle id="408" depart="489.60">
        <route edges="E1 -E0"/>
    </vehicle>
    <vehicle id="409" depart="490.80">
        <route edges="E0 E2 E4"/>
    </vehicle>
    <vehicle id="410" depart="492.00">
        <route edges="E1 E2"/>
    </vehicle>
    <vehicle id="411" depart="493.20">
        <route edges="E0 E2 E5"/>
    </vehicle>
    <vehicle id="412" depart="494.40">
        <route edges="E2"/>
    </vehicle>
    <vehicle id="413" depart="495.60">
        <route edges="-E2 E3"/>
    </vehicle>
    <vehicle id="414" depart="496.80">
        <route edges="-E6 E5"/>
    </vehicle>
    <vehicle id="415" depart="498.00">
        <route edges="E1 E2"/>
    </vehicle>
    <vehicle id="417" depart="500.40">
        <route edges="E0 E2"/>
    </vehicle>
    <vehicle id="418" depart="501.60">
        <route edges="E0 -E1"/>
    </vehicle>
    <vehicle id="419" depart="502.80">
        <route edges="-E5 E6"/>
    </vehicle>
    <vehicle id="421" depart="505.20">
        <route edges="E0 E2 E5"/>
    </vehicle>
    <vehicle id="422" depart="506.40">
        <route edges="E1 E2 E5"/>
    </vehicle>
    <vehicle id="423" depart="507.60">
        <route edges="-E5 -E2"/>
    </vehicle>
    <vehicle id="424" depart="508.80">
        <route edges="E0 E2 E5"/>
    </vehicle>
    <vehicle id="425" depart="510.00">
        <route edges="E1 -E0"/>
    </vehicle>
    <vehicle id="427" depart="512.40">
        <route edges="E2 E6"/>
    </vehicle>
    <vehicle id="428" depart="513.60">
        <route edges="E0 E2"/>
    </vehicle>
    <vehicle id="430" depart="516.00">
        <route edges="E1 E2"/>
    </vehicle>
    <vehicle id="431" depart="517.20">
        <route edges="E0 E2 E6"/>
    </vehicle>
    <vehicle id="433" depart="519.60">
        <route edges="-E4 -E2"/>
    </vehicle>
    <vehicle id="435" depart="522.00">
        <route edges="-E6 E5"/>
    </vehicle>
    <vehicle id="436" depart="523.20">
        <route edges="-E3 -E0"/>
    </vehicle>
    <vehicle id="437" depart="524.40">
        <route edges="E1 E3"/>
    </vehicle>
    <vehicle id="438" depart="525.60">
        <route edges="-E3 E2 E6"/>
    </vehicle>
    <vehicle id="439" depart="526.80">
        <route edges="-E3 E2"/>
    </vehicle>
    <vehicle id="440" depart="528.00">
        <route edges="-E4 -E2"/>
    </vehicle>
    <vehicle id="442" depart="530.40">
        <route edges="E2 E4"/>
    </vehicle>
    <vehicle id="443" depart="531.60">
        <route edges="-E3 E2"/>
    </vehicle>
    <vehicle id="444" depart="532.80">
        <route edges="-E4 -E2 E3"/>
    </vehicle>
    <vehicle id="445" depart="534.00">
        <route edges="E0 E2"/>
    </vehicle>
    <vehicle id="446" depart="535.20">
        <route edges="-E4 E5"/>
    </vehicle>
    <vehicle id="447" depart="536.40">
        <route edges="-E3 E2"/>
    </vehicle>
    <vehicle id="448" depart="537.60">
        <route edges="-E5 -E2 -E1"/>
    </vehicle>
    <vehicle id="449" depart="538.80">
        <route edges="-E6 -E2 E3"/>
    </vehicle>
    <vehicle id="451" depart="541.20">
        <route edges="E2 E4"/>
    </vehicle>
    <vehicle id="452" depart="542.40">
        <route edges="-E4 -E2 E3"/>
    </vehicle>
    <vehicle id="453" depart="543.60">
        <route edges="E0 E2 E4"/>
    </vehicle>
    <vehicle id="454" depart="544.80">
        <route edges="-E2 E3"/>
    </vehicle>
    <vehicle id="455" depart="546.00">
        <route edges="-E5 E6"/>
    </vehicle>
    <vehicle id="456" depart="547.20">
        <route edges="-E4 E5"/>
    </vehicle>
    <vehicle id="457" depart="548.40">
        <route edges="-E6 -E2"/>
    </vehicle>
    <vehicle id="458" depart="549.60">
        <route edges="E0 E3"/>
    </vehicle>
    <vehicle id="459" depart="550.80">
        <route edges="E0 E2 E4"/>
    </vehicle>
    <vehicle id="460" depart="552.00">
        <route edges="E0 E2 E5"/>
    </vehicle>
    <vehicle id="461" depart="553.20">
        <route edges="E0 E2 E6"/>
    </vehicle>
    <vehicle id="463" depart="555.60">
        <route edges="-E5 -E2 E3"/>
    </vehicle>
    <vehicle id="466" depart="559.20">
        <route edges="-E3 -E1"/>
    </vehicle>
    <vehicle id="470" depart="564.00">
        <route edges="E1 E2"/>
    </vehicle>
    <vehicle id="471" depart="565.20">
        <route edges="E1 E2 E4"/>
    </vehicle>
    <vehicle id="472" depart="566.40">
        <route edges="-E4 -E2 -E0"/>
    </vehicle>
    <vehicle id="474" depart="568.80">
        <route edges="E2 E5"/>
    </vehicle>
    <vehicle id="475" depart="570.00">
        <route edges="E0 E2 E6"/>
    </vehicle>
    <vehicle id="476" depart="571.20">