<?xml version="1.0" encoding="UTF-8"?>

<!-- generated on 2025-04-15 18:06:03 by Eclipse SUMO netedit Version 1.22.0
<neteditConfiguration xmlns:xsi="http://www.w3.org/2001/XMLSchema-instance" xsi:noNamespaceSchemaLocation="http://sumo.dlr.de/xsd/neteditConfiguration.xsd">

    <input>
        <sumo-net-file value="C:\Users\necat\Desktop\deneme.net.xml"/>
    </input>

    <output>
        <output-file value="C:\Users\necat\Desktop\deneme.net.xml"/>
    </output>

    <processing>
        <offset.disable-normalization value="true"/>
    </processing>

    <junctions>
        <no-turnarounds value="true"/>
    </junctions>

    <netedit>
        <new-network value="false"/>
    </netedit>

</neteditConfiguration>
-->

<net version="1.20" junctionCornerDetail="5" limitTurnSpeed="5.50" xmlns:xsi="http://www.w3.org/2001/XMLSchema-instance" xsi:noNamespaceSchemaLocation="http://sumo.dlr.de/xsd/net_file.xsd">

    <location netOffset="0.00,0.00" convBoundary="-84.24,-50.25,136.58,84.94" origBoundary="10000000000.00,10000000000.00,-10000000000.00,-10000000000.00" projParameter="!"/>

    <edge id=":J1_0" function="internal">
        <lane id=":J1_0_0" index="0" speed="6.67" length="9.31" shape="-5.35,18.60 -7.88,19.00 -9.70,20.10 -10.80,21.90 -11.20,24.39"/>
    </edge>
    <edge id=":J1_1" function="internal">
        <lane id=":J1_1_0" index="0" speed="13.89" length="14.58" shape="-5.35,18.60 -19.93,18.70"/>
    </edge>
    <edge id=":J1_2" function="internal">
        <lane id=":J1_2_0" index="0" speed="7.94" length="4.19" shape="-5.35,18.60 -9.27,18.12 -9.48,17.99"/>
    </edge>
    <edge id=":J1_12" function="internal">
        <lane id=":J1_12_0" index="0" speed="7.94" length="10.14" shape="-9.48,17.99 -12.05,16.49 -13.68,13.71 -14.17,9.80"/>
    </edge>
    <edge id=":J1_3" function="internal">
        <lane id=":J1_3_0" index="0" speed="6.43" length="9.03" shape="-10.97,9.85 -10.66,12.32 -9.63,14.07 -7.88,15.10 -5.41,15.40"/>
    </edge>
    <edge id=":J1_4" function="internal">
        <lane id=":J1_4_0" index="0" speed="13.89" length="14.54" shape="-10.97,9.85 -11.20,24.39"/>
    </edge>
    <edge id=":J1_5" function="internal">
        <lane id=":J1_5_0" index="0" speed="8.07" length="4.11" shape="-10.97,9.85 -11.59,13.74 -11.68,13.88"/>
    </edge>
    <edge id=":J1_13" function="internal">
        <lane id=":J1_13_0" index="0" speed="8.07" length="10.22" shape="-11.68,13.88 -13.29,16.51 -16.07,18.16 -19.93,18.70"/>
    </edge>
    <edge id=":J1_6" function="internal">
        <lane id=":J1_6_0" index="0" speed="6.59" length="9.21" shape="-19.92,15.50 -17.44,15.15 -15.66,14.09 -14.57,12.30 -14.17,9.80"/>
    </edge>
    <edge id=":J1_7" function="internal">
        <lane id=":J1_7_0" index="0" speed="13.89" length="14.50" shape="-19.92,15.50 -5.41,15.40"/>
    </edge>
    <edge id=":J1_8" function="internal">
        <lane id=":J1_8_0" index="0" speed="7.99" length="3.90" shape="-19.92,15.50 -16.06,16.07"/>
    </edge>
    <edge id=":J1_14" function="internal">
        <lane id=":J1_14_0" index="0" speed="7.99" length="10.32" shape="-16.06,16.07 -13.32,17.75 -11.70,20.52 -11.20,24.39"/>
    </edge>
    <edge id=":J1_9" function="internal">
        <lane id=":J1_9_0" index="0" speed="6.49" length="9.03" shape="-14.40,24.34 -14.72,21.89 -15.74,20.13 -17.48,19.06 -19.93,18.70"/>
    </edge>
    <edge id=":J1_10" function="internal">
        <lane id=":J1_10_0" index="0" speed="13.89" length="14.55" shape="-14.40,24.34 -14.17,9.80"/>
    </edge>
    <edge id=":J1_11" function="internal">
        <lane id=":J1_11_0" index="0" speed="8.14" length="4.08" shape="-14.40,24.34 -13.79,20.49 -13.69,20.33"/>
    </edge>
    <edge id=":J1_15" function="internal">
        <lane id=":J1_15_0" index="0" speed="8.14" length="10.27" shape="-13.69,20.33 -12.09,17.72 -9.30,16.02 -5.41,15.40"/>
    </edge>
    <edge id=":J3_0" function="internal">
        <lane id=":J3_0_0" index="0" speed="6.66" length="9.34" shape="71.79,17.19 69.26,17.58 67.44,18.68 66.34,20.49 65.96,23.00"/>
    </edge>
    <edge id=":J3_1" function="internal">
        <lane id=":J3_1_0" index="0" speed="13.89" length="14.62" shape="71.79,17.19 57.17,17.43"/>
    </edge>
    <edge id=":J3_2" function="internal">
        <lane id=":J3_2_0" index="0" speed="7.93" length="4.08" shape="71.79,17.19 67.87,16.68 67.76,16.62"/>
    </edge>
    <edge id=":J3_12" function="internal">
        <lane id=":J3_12_0" index="0" speed="7.93" length="10.27" shape="67.76,16.62 65.10,15.03 63.49,12.24 63.04,8.31"/>
    </edge>
    <edge id=":J3_3" function="internal">
        <lane id=":J3_3_0" index="0" speed="6.42" length="9.04" shape="66.24,8.40 66.52,10.87 67.53,12.63 69.28,13.67 71.75,13.99"/>
    </edge>
    <edge id=":J3_4" function="internal">
        <lane id=":J3_4_0" index="0" speed="13.89" length="14.60" shape="66.24,8.40 65.96,23.00"/>
    </edge>
    <edge id=":J3_5" function="internal">
        <lane id=":J3_5_0" index="0" speed="8.21" length="4.06" shape="66.24,8.40 65.58,12.29 65.52,12.39"/>
    </edge>
    <edge id=":J3_13" function="internal">
        <lane id=":J3_13_0" index="0" speed="8.21" length="10.38" shape="65.52,12.39 63.84,15.09 61.04,16.80 57.17,17.43"/>
    </edge>
    <edge id=":J3_6" function="internal">
        <lane id=":J3_6_0" index="0" speed="6.76" length="9.46" shape="57.11,14.23 59.64,13.82 61.47,12.69 62.61,10.86 63.04,8.31"/>
    </edge>
    <edge id=":J3_7" function="internal">
        <lane id=":J3_7_0" index="0" speed="13.89" length="14.64" shape="57.11,14.23 71.75,13.99"/>
    </edge>
    <edge id=":J3_8" function="internal">
        <lane id=":J3_8_0" index="0" speed="7.95" length="4.11" shape="57.11,14.23 61.01,14.71 61.16,14.80"/>
    </edge>
    <edge id=":J3_14" function="internal">
        <lane id=":J3_14_0" index="0" speed="7.95" length="10.19" shape="61.16,14.80 63.79,16.34 65.44,19.10 65.96,23.00"/>
    </edge>
    <edge id=":J3_9" function="internal">
        <lane id=":J3_9_0" index="0" speed="6.45" length="9.03" shape="62.76,22.97 62.43,20.50 61.39,18.76 59.63,17.73 57.17,17.43"/>
    </edge>
    <edge id=":J3_10" function="internal">
        <lane id=":J3_10_0" index="0" speed="13.89" length="14.66" shape="62.76,22.97 63.04,8.31"/>
    </edge>
    <edge id=":J3_11" function="internal">
        <lane id=":J3_11_0" index="0" speed="8.13" length="4.17" shape="62.76,22.97 63.35,19.09 63.48,18.88"/>
    </edge>
    <edge id=":J3_15" function="internal">
        <lane id=":J3_15_0" index="0" speed="8.13" length="10.24" shape="63.48,18.88 65.05,16.29 67.85,14.60 71.75,13.99"/>
    </edge>

    <edge id="-E0" from="J1" to="J0" priority="-1">
        <lane id="-E0_0" index="0" speed="13.89" length="64.32" shape="-19.93,18.70 -84.25,18.33"/>
    </edge>
    <edge id="-E1" from="J1" to="J2" priority="-1">
        <lane id="-E1_0" index="0" speed="13.89" length="57.34" shape="-11.20,24.39 -11.98,81.72"/>
    </edge>
    <edge id="-E2" from="J3" to="J1" priority="-1">
        <lane id="-E2_0" index="0" speed="13.89" length="62.53" shape="57.17,17.43 -5.35,18.60"/>
    </edge>
    <edge id="-E3" from="J4" to="J1" priority="-1">
        <lane id="-E3_0" index="0" speed="13.89" length="60.08" shape="-9.94,-50.22 -10.97,9.85"/>
    </edge>
    <edge id="-E4" from="J5" to="J3" priority="-1">
        <lane id="-E4_0" index="0" speed="13.89" length="61.96" shape="62.14,84.92 62.76,22.97"/>
    </edge>
    <edge id="-E5" from="J6" to="J3" priority="-1">
        <lane id="-E5_0" index="0" speed="13.89" length="58.48" shape="67.91,-50.05 66.24,8.40"/>
    </edge>
    <edge id="-E6" from="J7" to="J3" priority="-1">
        <lane id="-E6_0" index="0" speed="13.89" length="64.82" shape="136.60,16.30 71.79,17.19"/>
    </edge>
    <edge id="E0" from="J0" to="J1" priority="-1">
        <lane id="E0_0" index="0" speed="13.89" length="64.32" shape="-84.23,15.13 -19.92,15.50"/>
    </edge>
    <edge id="E1" from="J2" to="J1" priority="-1">
        <lane id="E1_0" index="0" speed="13.89" length="57.34" shape="-15.18,81.68 -14.40,24.34"/>
    </edge>
    <edge id="E2" from="J1" to="J3" priority="-1">
        <lane id="E2_0" index="0" speed="13.89" length="62.53" shape="-5.41,15.40 57.11,14.23"/>
    </edge>
    <edge id="E3" from="J1" to="J4" priority="-1">
        <lane id="E3_0" index="0" speed="13.89" length="60.08" shape="-14.17,9.80 -13.14,-50.28"/>
    </edge>
    <edge id="E4" from="J3" to="J5" priority="-1">
        <lane id="E4_0" index="0" speed="13.89" length="61.96" shape="65.96,23.00 65.34,84.96"/>
    </edge>
    <edge id="E5" from="J3" to="J6" priority="-1">
        <lane id="E5_0" index="0" speed="13.89" length="58.48" shape="63.04,8.31 64.71,-50.15"/>
    </edge>
    <edge id="E6" from="J3" to="J7" priority="-1">
        <lane id="E6_0" index="0" speed="13.89" length="64.82" shape="71.75,13.99 136.56,13.10"/>
    </edge>

    <tlLogic id="J1" type="static" programID="0" offset="0">
        <phase duration="42" state="rrrGGgrrrGGg"/>
        <phase duration="3"  state="rrryyyrrryyy"/>
        <phase duration="42" state="GGgrrrGGgrrr"/>
        <phase duration="3"  state="yyyrrryyyrrr"/>
    </tlLogic>
    <tlLogic id="J3" type="static" programID="0" offset="0">
        <phase duration="42" state="GGgrrrGGgrrr"/>
        <phase duration="3"  state="yyyrrryyyrrr"/>
        <phase duration="42" state="rrrGGgrrrGGg"/>
        <phase duration="3"  state="rrryyyrrryyy"/>
    </tlLogic>

    <junction id="J0" type="dead_end" x="-84.24" y="16.73" incLanes="-E0_0" intLanes="" shape="-84.24,16.73 -84.26,19.93 -84.24,16.73"/>
    <junction id="J1" type="traffic_light" x="-12.70" y="17.14" incLanes="-E2_0 -E3_0 E0_0 E1_0" intLanes=":J1_0_0 :J1_1_0 :J1_12_0 :J1_3_0 :J1_4_0 :J1_13_0 :J1_6_0 :J1_7_0 :J1_14_0 :J1_9_0 :J1_10_0 :J1_15_0" shape="-5.32,20.20 -5.44,13.80 -7.66,13.40 -8.43,12.86 -8.97,12.09 -9.28,11.10 -9.37,9.88 -15.77,9.77 -16.26,12.07 -16.84,12.88 -17.64,13.45 -18.66,13.79 -19.91,13.90 -19.94,20.30 -17.73,20.76 -16.96,21.32 -16.41,22.10 -16.09,23.10 -16.00,24.32 -9.60,24.41 -9.10,22.11 -8.50,21.29 -7.67,20.70 -6.61,20.34">
        <request index="0"  response="000000010000" foes="000100010000" cont="0"/>
        <request index="1"  response="111000110000" foes="111100110000" cont="0"/>
        <request index="2"  response="110111110000" foes="110111110000" cont="1"/>
        <request index="3"  response="000000000000" foes="100010000000" cont="0"/>
        <request index="4"  response="000100000100" foes="100110000111" cont="0"/>
        <request index="5"  response="111100000100" foes="111110000110" cont="1"/>
        <request index="6"  response="010000000000" foes="010000000100" cont="0"/>
        <request index="7"  response="110000111000" foes="110000111100" cont="0"/>
        <request index="8"  response="110000110011" foes="110000110111" cont="1"/>
        <request index="9"  response="000000000000" foes="000000100010" cont="0"/>
        <request index="10" response="000100000100" foes="000111100110" cont="0"/>
        <request index="11" response="000100011100" foes="000110111110" cont="1"/>
    </junction>
    <junction id="J2" type="dead_end" x="-13.58" y="81.70" incLanes="-E1_0" intLanes="" shape="-13.58,81.70 -10.38,81.74 -13.58,81.70"/>
    <junction id="J3" type="traffic_light" x="64.43" y="15.69" incLanes="-E6_0 -E5_0 E2_0 -E4_0" intLanes=":J3_0_0 :J3_1_0 :J3_12_0 :J3_3_0 :J3_4_0 :J3_13_0 :J3_6_0 :J3_7_0 :J3_14_0 :J3_9_0 :J3_10_0 :J3_15_0" shape="71.81,18.79 71.72,12.39 69.51,11.98 68.75,11.43 68.22,10.66 67.91,9.67 67.84,8.45 61.44,8.26 60.90,10.65 60.29,11.50 59.45,12.11 58.38,12.48 57.08,12.63 57.20,19.03 59.42,19.43 60.19,19.97 60.74,20.74 61.06,21.73 61.16,22.95 67.56,23.01 68.05,20.69 68.64,19.87 69.47,19.28 70.52,18.92">
        <request index="0"  response="000000000000" foes="000100010000" cont="0"/>
        <request index="1"  response="100000100000" foes="111100110000" cont="0"/>
        <request index="2"  response="100111100000" foes="110111110000" cont="1"/>
        <request index="3"  response="000010000000" foes="100010000000" cont="0"/>
        <request index="4"  response="000110000111" foes="100110000111" cont="0"/>
        <request index="5"  response="011110000110" foes="111110000110" cont="1"/>
        <request index="6"  response="000000000000" foes="010000000100" cont="0"/>
        <request index="7"  response="100000100000" foes="110000111100" cont="0"/>
        <request index="8"  response="100000100011" foes="110000110111" cont="1"/>
        <request index="9"  response="000000000010" foes="000000100010" cont="0"/>
        <request index="10" response="000111000110" foes="000111100110" cont="0"/>
        <request index="11" response="000110111110" foes="000110111110" cont="1"/>
    </junction>
    <junction id="J4" type="dead_end" x="-11.54" y="-50.25" incLanes="E3_0" intLanes="" shape="-11.54,-50.25 -14.74,-50.31 -11.54,-50.25"/>
    <junction id="J5" type="dead_end" x="63.74" y="84.94" incLanes="E4_0" intLanes="" shape="63.74,84.94 66.94,84.97 63.74,84.94"/>
    <junction id="J6" type="dead_end" x="66.31" y="-50.10" incLanes="E5_0" intLanes="" shape="66.31,-50.10 63.11,-50.19 66.31,-50.10"/>
    <junction id="J7" type="dead_end" x="136.58" y="14.70" incLanes="E6_0" intLanes="" shape="136.58,14.70 136.54,11.50 136.58,14.70"/>

    <junction id=":J1_12_0" type="internal" x="-9.48" y="17.99" incLanes=":J1_2_0 E0_0" intLanes=":J1_4_0 :J1_5_0 :J1_6_0 :J1_7_0 :J1_10_0 :J1_11_0"/>
    <junction id=":J1_13_0" type="internal" x="-11.68" y="13.88" incLanes=":J1_5_0 E1_0" intLanes=":J1_1_0 :J1_2_0 :J1_7_0 :J1_8_0 :J1_9_0 :J1_10_0"/>
    <junction id=":J1_14_0" type="internal" x="-16.06" y="16.07" incLanes=":J1_8_0 -E2_0" intLanes=":J1_0_0 :J1_1_0 :J1_4_0 :J1_5_0 :J1_10_0 :J1_11_0"/>
    <junction id=":J1_15_0" type="internal" x="-13.69" y="20.33" incLanes=":J1_11_0 -E3_0" intLanes=":J1_1_0 :J1_2_0 :J1_3_0 :J1_4_0 :J1_7_0 :J1_8_0"/>
    <junction id=":J3_12_0" type="internal" x="67.76" y="16.62" incLanes=":J3_2_0 E2_0" intLanes=":J3_4_0 :J3_5_0 :J3_6_0 :J3_7_0 :J3_10_0 :J3_11_0"/>
    <junction id=":J3_13_0" type="internal" x="65.52" y="12.39" incLanes=":J3_5_0 -E4_0" intLanes=":J3_1_0 :J3_2_0 :J3_7_0 :J3_8_0 :J3_9_0 :J3_10_0"/>
    <junction id=":J3_14_0" type="internal" x="61.16" y="14.80" incLanes=":J3_8_0 -E6_0" intLanes=":J3_0_0 :J3_1_0 :J3_4_0 :J3_5_0 :J3_10_0 :J3_11_0"/>
    <junction id=":J3_15_0" type="internal" x="63.48" y="18.88" incLanes=":J3_11_0 -E5_0" intLanes=":J3_1_0 :J3_2_0 :J3_3_0 :J3_4_0 :J3_7_0 :J3_8_0"/>

    <connection from="-E2" to="-E1" fromLane="0" toLane="0" via=":J1_0_0" tl="J1" linkIndex="0" dir="r" state="o"/>
    <connection from="-E2" to="-E0" fromLane="0" toLane="0" via=":J1_1_0" tl="J1" linkIndex="1" dir="s" state="o"/>
    <connection from="-E2" to="E3" fromLane="0" toLane="0" via=":J1_2_0" tl="J1" linkIndex="2" dir="l" state="o"/>
    <connection from="-E3" to="E2" fromLane="0" toLane="0" via=":J1_3_0" tl="J1" linkIndex="3" dir="r" state="O"/>
    <connection from="-E3" to="-E1" fromLane="0" toLane="0" via=":J1_4_0" tl="J1" linkIndex="4" dir="s" state="O"/>
    <connection from="-E3" to="-E0" fromLane="0" toLane="0" via=":J1_5_0" tl="J1" linkIndex="5" dir="l" state="o"/>
    <connection from="-E4" to="-E2" fromLane="0" toLane="0" via=":J3_9_0" tl="J3" linkIndex="9" dir="r" state="o"/>
    <connection from="-E4" to="E5" fromLane="0" toLane="0" via=":J3_10_0" tl="J3" linkIndex="10" dir="s" state="o"/>
    <connection from="-E4" to="E6" fromLane="0" toLane="0" via=":J3_11_0" tl="J3" linkIndex="11" dir="l" state="o"/>
    <connection from="-E5" to="E6" fromLane="0" toLane="0" via=":J3_3_0" tl="J3" linkIndex="3" dir="r" state="o"/>
    <connection from="-E5" to="E4" fromLane="0" toLane="0" via=":J3_4_0" tl="J3" linkIndex="4" dir="s" state="o"/>
    <connection from="-E5" to="-E2" fromLane="0" toLane="0" via=":J3_5_0" tl="J3" linkIndex="5" dir="l" state="o"/>
    <connection from="-E6" to="E4" fromLane="0" toLane="0" via=":J3_0_0" tl="J3" linkIndex="0" dir="r" state="O"/>
    <connection from="-E6" to="-E2" fromLane="0" toLane="0" via=":J3_1_0" tl="J3" linkIndex="1" dir="s" state="O"/>
    <connection from="-E6" to="E5" fromLane="0" toLane="0" via=":J3_2_0" tl="J3" linkIndex="2" dir="l" state="o"/>
    <connection from="E0" to="E3" fromLane="0" toLane="0" via=":J1_6_0" tl="J1" linkIndex="6" dir="r" state="o"/>
    <connection from="E0" to="E2" fromLane="0" toLane="0" via=":J1_7_0" tl="J1" linkIndex="7" dir="s" state="o"/>
    <connection from="E0" to="-E1" fromLane="0" toLane="0" via=":J1_8_0" tl="J1" linkIndex="8" dir="l" state="o"/>
    <connection from="E1" to="-E0" fromLane="0" toLane="0" via=":J1_9_0" tl="J1" linkIndex="9" dir="r" state="O"/>
    <connection from="E1" to="E3" fromLane="0" toLane="0" via=":J1_10_0" tl="J1" linkIndex="10" dir="s" state="O"/>
    <connection from="E1" to="E2" fromLane="0" toLane="0" via=":J1_11_0" tl="J1" linkIndex="11" dir="l" state="o"/>
    <connection from="E2" to="E5" fromLane="0" toLane="0" via=":J3_6_0" tl="J3" linkIndex="6" dir="r" state="O"/>
    <connection from="E2" to="E6" fromLane="0" toLane="0" via=":J3_7_0" tl="J3" linkIndex="7" dir="s" state="O"/>
    <connection from="E2" to="E4" fromLane="0" toLane="0" via=":J3_8_0" tl="J3" linkIndex="8" dir="l" state="o"/>

    <connection from=":J1_0" to="-E1" fromLane="0" toLane="0" dir="r" state="M"/>
    <connection from=":J1_1" to="-E0" fromLane="0" toLane="0" dir="s" state="M"/>
    <connection from=":J1_2" to="E3" fromLane="0" toLane="0" via=":J1_12_0" dir="l" state="m"/>
    <connection from=":J1_12" to="E3" fromLane="0" toLane="0" dir="l" state="M"/>
    <connection from=":J1_3" to="E2" fromLane="0" toLane="0" dir="r" state="M"/>
    <connection from=":J1_4" to="-E1" fromLane="0" toLane="0" dir="s" state="M"/>
    <connection from=":J1_5" to="-E0" fromLane="0" toLane="0" via=":J1_13_0" dir="l" state="m"/>
    <connection from=":J1_13" to="-E0" fromLane="0" toLane="0" dir="l" state="M"/>
    <connection from=":J1_6" to="E3" fromLane="0" toLane="0" dir="r" state="M"/>
    <connection from=":J1_7" to="E2" fromLane="0" toLane="0" dir="s" state="M"/>
    <connection from=":J1_8" to="-E1" fromLane="0" toLane="0" via=":J1_14_0" dir="l" state="m"/>
    <connection from=":J1_14" to="-E1" fromLane="0" toLane="0" dir="l" state="M"/>
    <connection from=":J1_9" to="-E0" fromLane="0" toLane="0" dir="r" state="M"/>
    <connection from=":J1_10" to="E3" fromLane="0" toLane="0" dir="s" state="M"/>
    <connection from=":J1_11" to="E2" fromLane="0" toLane="0" via=":J1_15_0" dir="l" state="m"/>
    <connection from=":J1_15" to="E2" fromLane="0" toLane="0" dir="l" state="M"/>
    <connection from=":J3_0" to="E4" fromLane="0" toLane="0" dir="r" state="M"/>
    <connection from=":J3_1" to="-E2" fromLane="0" toLane="0" dir="s" state="M"/>
    <connection from=":J3_2" to="E5" fromLane="0" toLane="0" via=":J3_12_0" dir="l" state="m"/>
    <connection from=":J3_12" to="E5" fromLane="0" toLane="0" dir="l" state="M"/>
    <connection from=":J3_3" to="E6" fromLane="0" toLane="0" dir="r" state="M"/>
    <connection from=":J3_4" to="E4" fromLane="0" toLane="0" dir="s" state="M"/>
    <connection from=":J3_5" to="-E2" fromLane="0" toLane="0" via=":J3_13_0" dir="l" state="m"/>
    <connection from=":J3_13" to="-E2" fromLane="0" toLane="0" dir="l" state="M"/>
    <connection from=":J3_6" to="E5" fromLane="0" toLane="0" dir="r" state="M"/>
    <connection from=":J3_7" to="E6" fromLane="0" toLane="0" dir="s" state="M"/>
    <connection from=":J3_8" to="E4" fromLane="0" toLane="0" via=":J3_14_0" dir="l" state="m"/>
    <connection from=":J3_14" to="E4" fromLane="0" toLane="0" dir="l" state="M"/>
    <connection from=":J3_9" to="-E2" fromLane="0" toLane="0" dir="r" state="M"/>
    <connection from=":J3_10" to="E5" fromLane="0" toLane="0" dir="s" state="M"/>
    <connection from=":J3_11" to="E6" fromLane="0" toLane="0" via=":J3_15_0" dir="l" state="m"/>
    <connection from=":J3_15" to="E6" fromLane="0" toLane="0" dir="l" state="M"/>

</net>
