<?xml version="1.0" encoding="UTF-8"?>

<!-- generated on 2025-05-01 14:00:08.635910 by randomTrips.py v1_22_0+0002-63e50f52594
<configuration>
    <net-file value="E:/python/trafik5/weight_deneme.net.xml"/>
    <route-file value="E:/python/trafik5/custom_routes.rou.xml"/>
    <edge-param value="weight"/>
    <validate value="True"/>
    <end value="600.0"/>
    <period value="2.0"/>
</configuration>
-->

<!-- generated on 2025-05-01 14:00:08 by Eclipse SUMO duarouter Version 1.22.0
<duarouterConfiguration xmlns:xsi="http://www.w3.org/2001/XMLSchema-instance" xsi:noNamespaceSchemaLocation="http://sumo.dlr.de/xsd/duarouterConfiguration.xsd">

    <input>
        <net-file value="E:/python/trafik5/weight_deneme.net.xml"/>
        <route-files value="trips.trips.xml"/>
    </input>

    <output>
        <output-file value="E:/python/trafik5/custom_routes.rou.xml"/>
        <alternatives-output value="NUL"/>
    </output>

    <time>
        <begin value="0.0"/>
        <end value="600.0"/>
    </time>

    <report>
        <no-warnings value="true"/>
        <ignore-errors value="true"/>
        <no-step-log value="true"/>
    </report>

</duarouterConfiguration>
-->

<routes xmlns:xsi="http://www.w3.org/2001/XMLSchema-instance" xsi:noNamespaceSchemaLocation="http://sumo.dlr.de/xsd/routes_file.xsd">
    <vehicle id="1" depart="2.00">
        <route edges="E34 E35 E36 E37 E38 E53 E54 E55 E73 E74 E75 E71 E71.19 E32 E33"/>
    </vehicle>
    <vehicle id="2" depart="4.00">
        <route edges="E65"/>
    </vehicle>
    <vehicle id="3" depart="6.00">
        <route edges="E73 E74 E75 E71 E71.19 E34 E35 E36 E37 E38 E53 E54 E55 E17"/>
    </vehicle>
    <vehicle id="6" depart="12.00">
        <route edges="E0 E1 E2 E32"/>
    </vehicle>
    <vehicle id="7" depart="14.00">
        <route edges="E59 E62 E34 E35 E36 E37 E38 E53 E54 E55"/>
    </vehicle>
    <vehicle id="14" depart="28.00">
        <route edges="E71.19 E34 E35 E36 E37 E38 E53 E54 E55 E73 E74 E75 E59 E62"/>
    </vehicle>
    <vehicle id="17" depart="34.00">
        <route edges="E38 E53 E54 E55"/>
    </vehicle>
    <vehicle id="18" depart="36.00">
        <route edges="E71 E71.19 E34 E35 E36 E37 E38 E53 E54 E55 E73 E74 E75 E59 E63"/>
    </vehicle>
    <vehicle id="19" depart="38.00">
        <route edges="E71.19 E34 E35 E36 E37 E38 E53 E54 E55 E73 E74 E75 E59"/>
    </vehicle>
    <vehicle id="24" depart="48.00">
        <route edges="E59 E62 E34 E35 E36 E37 E38"/>
    </vehicle>
    <vehicle id="25" depart="50.00">
        <route edges="E38 E53 E54 E55 E73 E74 E75 E71 E71.19 E32"/>
    </vehicle>
    <vehicle id="26" depart="52.00">
        <route edges="E34 E35 E36 E37 E38 E53 E54 E55 E73 E74 E75"/>
    </vehicle>
    <vehicle id="27" depart="54.00">
        <route edges="E59 E63"/>
    </vehicle>
    <vehicle id="28" depart="56.00">
        <route edges="E2 E34 E35 E36 E37 E38 E53 E65 E67"/>
    </vehicle>
    <vehicle id="32" depart="64.00">
        <route edges="E71.19 E34 E35 E36 E68 E69"/>
    </vehicle>
    <vehicle id="34" depart="68.00">
        <route edges="E35"/>
    </vehicle>
    <vehicle id="36" depart="72.00">
        <route edges="E73 E74 E75 E71 E71.19 E34 E35 E36"/>
    </vehicle>
    <vehicle id="39" depart="78.00">
        <route edges="E34"/>
    </vehicle>
    <vehicle id="40" depart="80.00">
        <route edges="E53 E54 E55 E73 E74 E75 E71 E71.19 E34"/>
    </vehicle>
    <vehicle id="41" depart="82.00">
        <route edges="E54 E55 E73 E74"/>
    </vehicle>
    <vehicle id="42" depart="84.00">
        <route edges="E41 E42 E43 E36 E37 E38 E53 E54 E55 E73 E74 E75 E71 E71.19 E32 E33"/>
    </vehicle>
    <vehicle id="44" depart="88.00">
        <route edges="E14 E14.56"/>
    </vehicle>
    <vehicle id="50" depart="100.00">
        <route edges="-E67 E66 E55 E73 E74 E75 E71 E71.19 E34 E35 E36 E37 E38 E53 E65 E67"/>
    </vehicle>
    <vehicle id="51" depart="102.00">
        <route edges="E62 E34 E35 E36 E37 E38 E53 E54 E55"/>
    </vehicle>
    <vehicle id="52" depart="104.00">
        <route edges="E34 E35 E36 E37 E38 E53 E54 E55 E73 E74 E75 E59 E63 E64"/>
    </vehicle>
    <vehicle id="55" depart="110.00">
        <route edges="E73 E74 E75 E71 E71.19 E34 E35"/>
    </vehicle>
    <vehicle id="57" depart="114.00">
        <route edges="E74 E75 E71 E71.19 E34 E35 E36 E37 E38 E53 E54 E55 E73"/>
    </vehicle>
    <vehicle id="58" depart="116.00">
        <route edges="E35 E36 E37 E38 E53 E54 E55 E73 E74 E75 E59 E63 E64"/>
    </vehicle>
    <vehicle id="60" depart="120.00">
        <route edges="E66 E55"/>
    </vehicle>
    <vehicle id="62" depart="124.00">
        <route edges="-E67 E66 E55 E73 E74 E75 E71 E71.19 E34 E35 E36 E37"/>
    </vehicle>
    <vehicle id="63" depart="126.00">
        <route edges="-E67 E66 E55 E73 E74 E75"/>
    </vehicle>
    <vehicle id="64" depart="128.00">
        <route edges="E73 E74 E75 E71"/>
    </vehicle>
    <vehicle id="65" depart="130.00">
        <route edges="E35 E36 E37 E38 E53 E54 E55 E17 E15"/>
    </vehicle>
    <vehicle id="66" depart="132.00">
        <route edges="E73 E74 E75"/>
    </vehicle>
    <vehicle id="68" depart="136.00">
        <route edges="E1 E2 E34 E35 E36 E68"/>
    </vehicle>
    <vehicle id="70" depart="140.00">
        <route edges="E47 E48 E49 E53 E54 E55"/>
    </vehicle>
    <vehicle id="71" depart="142.00">
        <route edges="E34 E35 E36 E37 E38 E53 E54 E55 E73"/>
    </vehicle>
    <vehicle id="72" depart="144.00">
        <route edges="E42 E43 E36 E37 E38 E53 E54 E55 E73 E74 E75 E71 E71.19 E32 E33"/>
    </vehicle>
    <vehicle id="73" depart="146.00">
        <route edges="E49 E53 E65 E67"/>
    </vehicle>
    <vehicle id="76" depart="152.00">
        <route edges="E42 E43 E36 E37 E38 E53 E54"/>
    </vehicle>
    <vehicle id="78" depart="156.00">
        <route edges="E36 E37 E38 E53 E54 E55 E73 E74 E75 E59 E62"/>
    </vehicle>
    <vehicle id="80" depart="160.00">
        <route edges="E1 E2 E34 E35 E36 E37 E38 E53 E54 E55 E73 E74 E75 E59 E63"/>
    </vehicle>
    <vehicle id="82" depart="164.00">
        <route edges="E71.19 E34 E35 E36 E37 E38 E53 E54 E55 E17 E15"/>
    </vehicle>
    <vehicle id="85" depart="170.00">
        <route edges="E75 E59"/>
    </vehicle>
    <vehicle id="86" depart="172.00">
        <route edges="E43 E36 E68 E69"/>
    </vehicle>
    <vehicle id="90" depart="180.00">
        <route edges="E65"/>
    </vehicle>
    <vehicle id="92" depart="184.00">
        <route edges="E41 E42 E43 E36 E37"/>
    </vehicle>
    <vehicle id="93" depart="186.00">
        <route edges="E71.19 E34"/>
    </vehicle>
    <vehicle id="95" depart="190.00">
        <route edges="E42 E43 E36 E37 E38 E53 E54 E55 E73 E74 E75 E71 E71.19 E34 E35"/>
    </vehicle>
    <vehicle id="97" depart="194.00">
        <route edges="E42 E43 E36 E37 E38 E53 E54 E55 E73 E74 E75 E71 E71.19"/>
    </vehicle>
    <vehicle id="102" depart="204.00">
        <route edges="E47 E48 E49 E53 E54 E55 E73 E74 E75 E71 E71.19 E32 E33"/>
    </vehicle>
    <vehicle id="103" depart="206.00">
        <route edges="E41 E42 E43 E36 E37 E38 E53 E54 E55 E17 E15"/>
    </vehicle>
    <vehicle id="105" depart="210.00">
        <route edges="E34 E35 E36 E68 E69"/>
    </vehicle>
    <vehicle id="107" depart="214.00">
        <route edges="E76 E77"/>
    </vehicle>
    <vehicle id="108" depart="216.00">
        <route edges="E53 E65 E67"/>
    </vehicle>
    <vehicle id="111" depart="222.00">
        <route edges="E49 E53 E54 E55 E73 E74 E75 E71 E71.19 E34 E35 E36 E68"/>
    </vehicle>
    <vehicle id="112" depart="224.00">
        <route edges="E1 E2 E34 E35 E36 E37 E38 E53 E54 E55 E73 E74 E75 E59 E62"/>
    </vehicle>
    <vehicle id="113" depart="226.00">
        <route edges="E48 E49 E53 E54 E55 E73 E74 E75 E71 E71.19"/>
    </vehicle>
    <vehicle id="116" depart="232.00">
        <route edges="E54 E55 E73 E74 E75 E71 E71.19 E34 E35 E36 E37 E38 E53 E65"/>
    </vehicle>
    <vehicle id="118" depart="236.00">
        <route edges="E73 E74 E75 E71 E71.19 E34"/>
    </vehicle>
    <vehicle id="119" depart="238.00">
        <route edges="E54 E55 E73 E74 E75 E59 E63"/>
    </vehicle>
    <vehicle id="120" depart="240.00">
        <route edges="E41 E42 E43 E36 E37 E38 E53 E54 E55 E73 E74 E75 E59 E62"/>
    </vehicle>
    <vehicle id="121" depart="242.00">
        <route edges="E48 E49 E53 E54 E55 E73 E74 E75"/>
    </vehicle>
    <vehicle id="124" depart="248.00">
        <route edges="E62 E34 E35 E36"/>
    </vehicle>
    <vehicle id="125" depart="250.00">
        <route edges="E36 E68"/>
    </vehicle>
    <vehicle id="127" depart="254.00">
        <route edges="E77"/>
    </vehicle>
    <vehicle id="128" depart="256.00">
        <route edges="E1 E2 E32 E33"/>
    </vehicle>
    <vehicle id="129" depart="258.00">
        <route edges="E34 E35 E36 E37 E38 E53 E54 E55 E73 E74 E75"/>
    </vehicle>
    <vehicle id="130" depart="260.00">
        <route edges="E73"/>
    </vehicle>
    <vehicle id="135" depart="270.00">
        <route edges="E71 E71.19 E34 E35 E36"/>
    </vehicle>
    <vehicle id="136" depart="272.00">
        <route edges="E62 E34 E35 E36 E37 E38 E53 E54 E55 E73 E74 E75"/>
    </vehicle>
    <vehicle id="139" depart="278.00">
        <route edges="E34 E35 E36 E37 E38 E53 E54 E55 E73 E74 E75 E59 E62"/>
    </vehicle>
    <vehicle id="141" depart="282.00">
        <route edges="E59 E62 E34 E35"/>
    </vehicle>
    <vehicle id="142" depart="284.00">
        <route edges="E47 E48 E49 E53 E54 E55 E73 E74"/>
    </vehicle>
    <vehicle id="143" depart="286.00">
        <route edges="E71.19 E34 E35 E36 E37 E38 E53 E54 E55 E17"/>
    </vehicle>
    <vehicle id="144" depart="288.00">
        <route edges="E42 E43 E36 E37 E38 E53 E54 E55 E73 E74 E75 E71 E71.19 E34 E35"/>
    </vehicle>
    <vehicle id="145" depart="290.00">
        <route edges="-E67 E66 E55 E73 E74 E75 E71 E71.19 E34 E35 E36 E68 E69"/>
    </vehicle>
    <vehicle id="146" depart="292.00">
        <route edges="E59 E62 E34"/>
    </vehicle>
    <vehicle id="147" depart="294.00">
        <route edges="E66 E55"/>
    </vehicle>
    <vehicle id="149" depart="298.00">
        <route edges="E1 E2 E34 E35 E36 E37 E38 E53 E54 E55 E73"/>
    </vehicle>
    <vehicle id="150" depart="300.00">
        <route edges="E74 E75 E71 E71.19 E34 E35 E36 E37 E38 E53 E54 E55"/>
    </vehicle>
    <vehicle id="151" depart="302.00">
        <route edges="E71 E71.19 E34 E35 E36 E37 E38 E53 E54 E55 E73 E74 E75 E59 E62"/>
    </vehicle>
    <vehicle id="153" depart="306.00">
        <route edges="E35 E36 E37 E38 E53 E54 E55 E73 E74"/>
    </vehicle>
    <vehicle id="155" depart="310.00">
        <route edges="E74 E75 E71 E71.19 E32"/>
    </vehicle>
    <vehicle id="158" depart="316.00">
        <route edges="E41 E42 E43 E36 E37 E38 E53 E54 E55 E73 E74 E75 E59 E63"/>
    </vehicle>
    <vehicle id="162" depart="324.00">
        <route edges="-E67 E66 E55 E73 E74 E75 E71 E71.19 E34 E35 E36 E37 E38 E53 E65 E67"/>
    </vehicle>
    <vehicle id="163" depart="326.00">
        <route edges="E36 E37 E38 E53 E54 E55 E73 E74 E75"/>
    </vehicle>
    <vehicle id="167" depart="334.00">
        <route edges="E73 E74 E75 E71 E71.19"/>
    </vehicle>
    <vehicle id="169" depart="338.00">
        <route edges="E43 E36"/>
    </vehicle>
    <vehicle id="171" depart="342.00">
        <route edges="-E67 E66 E55 E73 E74 E75 E71 E71.19 E32"/>
    </vehicle>
    <vehicle id="172" depart="344.00">
        <route edges="E36 E37 E38 E53 E54 E55 E73 E74 E75 E71 E71.19"/>
    </vehicle>
    <vehicle id="181" depart="362.00">
        <route edges="E55 E73 E74 E75 E71 E71.19 E34 E35 E36 E37 E38 E53 E54"/>
    </vehicle>
    <vehicle id="182" depart="364.00">
        <route edges="E38 E53 E54 E55 E73 E74 E75 E59"/>
    </vehicle>
    <vehicle id="184" depart="368.00">
        <route edges="-E67 E66 E55 E73 E74 E75"/>
    </vehicle>
    <vehicle id="185" depart="370.00">
        <route edges="E49 E53 E65 E67"/>
    </vehicle>
    <vehicle id="186" depart="372.00">
        <route edges="E66 E55 E73 E74 E75 E71 E71.19 E34 E35 E36 E37 E38 E53 E65"/>
    </vehicle>
    <vehicle id="187" depart="374.00">
        <route edges="E37 E38 E53 E54 E55 E17 E15"/>
    </vehicle>
    <vehicle id="188" depart="376.00">
        <route edges="E62 E34 E35 E36 E37"/>
    </vehicle>
    <vehicle id="189" depart="378.00">
        <route edges="E35 E36 E37 E38 E53 E54 E55 E73 E74 E75 E71 E71.19"/>
    </vehicle>
    <vehicle id="192" depart="384.00">
        <route edges="E41 E42 E43 E36"/>
    </vehicle>
    <vehicle id="194" depart="388.00">
        <route edges="E75 E71 E71.19 E34 E35 E36 E37 E38 E53 E65"/>
    </vehicle>
    <vehicle id="195" depart="390.00">
        <route edges="E74 E75 E59 E63"/>
    </vehicle>
    <vehicle id="196" depart="392.00">
        <route edges="E35 E36 E37 E38 E53 E54 E55"/>
    </vehicle>
    <vehicle id="197" depart="394.00">
        <route edges="-E67 E66 E55 E73 E74 E75 E71 E71.19 E34 E35"/>
    </vehicle>
    <vehicle id="198" depart="396.00">
        <route edges="E42 E43 E36 E37 E38 E53 E54 E55 E73 E74 E75 E59 E62"/>
    </vehicle>
    <vehicle id="200" depart="400.00">
        <route edges="E42 E43 E36 E37 E38 E53 E54 E55 E73 E74 E75 E71 E71.19 E32 E33"/>
    </vehicle>
    <vehicle id="201" depart="402.00">
        <route edges="E43 E36 E37 E38 E53 E54 E55 E73 E74"/>
    </vehicle>
    <vehicle id="204" depart="408.00">
        <route edges="E59 E62 E34 E35 E36 E37"/>
    </vehicle>
    <vehicle id="205" depart="410.00">
        <route edges="E71 E71.19 E34 E35 E36 E68"/>
    </vehicle>
    <vehicle id="206" depart="412.00">
        <route edges="E62 E32 E33"/>
    </vehicle>
    <vehicle id="209" depart="418.00">
        <route edges="E71.19 E34 E35 E36 E37 E38 E53 E54 E55 E17 E15"/>
    </vehicle>
    <vehicle id="210" depart="420.00">
        <route edges="E41 E42 E43 E36 E37 E38 E53 E54 E55 E73 E74 E75 E59 E63"/>
    </vehicle>
    <vehicle id="212" depart="424.00">
        <route edges="E47 E48 E49 E53 E54 E55 E73 E74 E75 E71 E71.19 E34"/>
    </vehicle>
    <vehicle id="214" depart="428.00">
        <route edges="E66 E55 E73 E74 E75 E71 E71.19 E34 E35 E36 E68 E69"/>
    </vehicle>
    <vehicle id="219" depart="438.00">
        <route edges="E43 E36 E68 E69 E70"/>
    </vehicle>
    <vehicle id="222" depart="444.00">
        <route edges="E73 E74 E75 E59 E63"/>
    </vehicle>
    <vehicle id="224" depart="448.00">
        <route edges="E71 E71.19 E34 E35 E36 E37 E38 E53 E54 E55"/>
    </vehicle>
    <vehicle id="225" depart="450.00">
        <route edges="E74 E75 E71 E71.19 E34 E35 E36 E68"/>
    </vehicle>
    <vehicle id="226" depart="452.00">
        <route edges="E47 E48 E49 E53 E54 E55 E73 E74 E75 E71 E71.19 E34"/>
    </vehicle>
    <vehicle id="229" depart="458.00">
        <route edges="E55 E73 E74 E75 E71 E71.19 E34 E35"/>
    </vehicle>
    <vehicle id="230" depart="460.00">
        <route edges="E1 E2 E34 E35"/>
    </vehicle>
    <vehicle id="231" depart="462.00">
        <route edges="E34 E35 E36 E37"/>
    </vehicle>
    <vehicle id="235" depart="470.00">
        <route edges="E41 E42 E43 E36 E37 E38 E53 E54 E55"/>
    </vehicle>
    <vehicle id="236" depart="472.00">
        <route edges="E41 E42 E43 E36 E37 E38 E53 E54 E55 E73 E74 E75 E71 E71.19 E32"/>
    </vehicle>
    <vehicle id="237" depart="474.00">
        <route edges="E41 E42 E43 E36 E37 E38 E53 E54 E55 E73 E74"/>
    </vehicle>
    <vehicle id="239" depart="478.00">
        <route edges="E71.19 E34 E35 E36 E68 E69"/>
    </vehicle>
    <vehicle id="241" depart="482.00">
        <route edges="E37 E38 E53 E54 E55 E73 E74 E75 E71 E71.19 E34 E35 E36 E68"/>
    </vehicle>
    <vehicle id="243" depart="486.00">
        <route edges="E41 E42 E43 E36 E68"/>
    </vehicle>
    <vehicle id="244" depart="488.00">
        <route edges="E49 E53 E54 E55 E73 E74 E75 E59 E62"/>
    </vehicle>
    <vehicle id="247" depart="494.00">
        <route edges="E36 E37 E38 E53 E65"/>
    </vehicle>
    <vehicle id="251" depart="502.00">
        <route edges="E38 E53 E54 E55 E73 E74 E75 E59"/>
    </vehicle>
    <vehicle id="252" depart="504.00">
        <route edges="E0 E1 E2 E34 E35 E36 E37 E38 E53 E54 E55 E73 E74 E75 E59 E63 E64"/>
    </vehicle>
    <vehicle id="257" depart="514.00">
        <route edges="E66 E55 E73 E74 E75 E71"/>
    </vehicle>
    <vehicle id="259" depart="518.00">
        <route edges="-E67 E66 E55"/>
    </vehicle>
    <vehicle id="261" depart="522.00">
        <route edges="E59 E62 E34 E35 E36 E68 E69"/>
    </vehicle>
    <vehicle id="262" depart="524.00">
        <route edges="E59 E62 E34 E35 E36 E68"/>
    </vehicle>
    <vehicle id="266" depart="532.00">
        <route edges="E53 E54 E55 E73 E74 E75 E71 E71.19 E32 E33"/>
    </vehicle>
    <vehicle id="268" depart="536.00">
        <route edges="E2 E34 E35 E36 E37 E38 E53 E54 E55 E73 E74 E75 E59 E63"/>
    </vehicle>
    <vehicle id="272" depart="544.00">
        <route edges="E35 E36 E37 E38 E53 E65"/>
    </vehicle>
    <vehicle id="275" depart="550.00">
        <route edges="E63"/>
    </vehicle>
    <vehicle id="277" depart="554.00">
        <route edges="E71.19 E34 E35 E36 E37 E38 E53 E54 E55 E73 E74 E75 E59 E62"/>
    </vehicle>
    <vehicle id="280" depart="560.00">
        <route edges="E42"/>
    </vehicle>
    <vehicle id="281" depart="562.00">
        <route edges="E48 E49 E53 E54 E55 E73 E74 E75 E71 E71.19 E34 E35 E36 E37"/>
    </vehicle>
    <vehicle id="282" depart="564.00">
        <route edges="E71.19 E34 E35 E36 E37 E38 E53 E54 E55 E73 E74 E75 E71"/>
    </vehicle>
    <vehicle id="284" depart="568.00">
        <route edges="E59 E62 E34 E35 E36 E37 E38 E53 E54 E55 E73 E74 E75 E71"/>
    </vehicle>
    <vehicle id="287" depart="574.00">
        <route edges="E34 E35 E36 E68 E69 E70"/>
    </vehicle>
    <vehicle id="288" depart="576.00">
        <route edges="E49 E53"/>
    </vehicle>
    <vehicle id="289" depart="578.00">
        <route edges="E42 E43 E36 E37 E38 E53 E65 E67"/>
    </vehicle>
    <vehicle id="290" depart="580.00">
        <route edges="E34 E35 E36 E37 E38 E53 E54 E55 E73 E74 E75 E71 E71.19"/>
    </vehicle>
    <vehicle id="291" depart="582.00">
        <route edges="E71 E71.19 E34 E35 E36 E37 E38 E53 E54 E55 E17"/>
    </vehicle>
    <vehicle id="292" depart="584.00">
        <route edges="E73 E74 E75 E71 E71.19 E34"/>
    </vehicle>
    <vehicle id="293" depart="586.00">
        <route edges="E43 E36 E37 E38 E53 E54 E55 E73 E74 E75 E59 E63"/>
    </vehicle>
    <vehicle id="297" depart="594.00">
        <route edges="E36 E37 E38 E53 E54 E55 E73"/>
    </vehicle>
</routes>
