<?xml version='1.0' encoding='UTF-8'?>
<!-- generated on 2025-05-01 13:59:57 by Eclipse SUMO netedit Version 1.22.0
<neteditConfiguration xmlns:xsi="http://www.w3.org/2001/XMLSchema-instance" xsi:noNamespaceSchemaLocation="http://sumo.dlr.de/xsd/neteditConfiguration.xsd">

    <input>
        <sumo-net-file value="E:\python\trafik5\deneme.net.xml"/>
    </input>

    <output>
        <output-file value="E:\python\trafik5\deneme.net.xml"/>
    </output>

    <processing>
        <geometry.min-radius.fix.railways value="false"/>
        <geometry.max-grade.fix value="false"/>
        <offset.disable-normalization value="true"/>
        <lefthand value="0"/>
    </processing>

    <junctions>
        <no-turnarounds value="true"/>
        <junctions.corner-detail value="5"/>
        <junctions.limit-turn-speed value="5.50"/>
        <rectangular-lane-cut value="0"/>
    </junctions>

    <pedestrian>
        <walkingareas value="0"/>
    </pedestrian>

</neteditConfiguration>
-->
<net xmlns:xsi="http://www.w3.org/2001/XMLSchema-instance" version="1.20" junctionCornerDetail="5" limitTurnSpeed="5.50" xsi:noNamespaceSchemaLocation="http://sumo.dlr.de/xsd/net_file.xsd">

    <location netOffset="0.00,0.00" convBoundary="-88.45,-124.12,178.37,91.20" origBoundary="-10000000000.00,-10000000000.00,10000000000.00,10000000000.00" projParameter="!"/>

    <edge id=":J11_0" function="internal">
        <lane id=":J11_0_0" index="0" disallow="pedestrian" speed="13.89" length="14.85" shape="67.61,29.88 52.74,29.45"/>
        <lane id=":J11_0_1" index="1" disallow="pedestrian" speed="13.89" length="14.85" shape="67.65,26.68 52.84,26.25"/>
    </edge>
    <edge id=":J11_2" function="internal">
        <lane id=":J11_2_0" index="0" disallow="pedestrian" speed="13.89" length="14.58" shape="67.65,26.68 63.35,26.56 60.39,26.09 57.66,24.87 54.07,22.53"/>
        <lane id=":J11_2_1" index="1" disallow="pedestrian" speed="13.89" length="14.02" shape="67.65,26.68 63.73,26.13 61.32,24.70 59.13,22.57 55.89,19.89"/>
    </edge>
    <edge id=":J12_0" function="internal">
        <lane id=":J12_0_0" index="0" disallow="pedestrian" speed="13.89" length="9.49" shape="43.49,-29.00 44.44,-31.42 44.80,-33.18 44.84,-35.01 44.84,-37.64"/>
        <lane id=":J12_0_1" index="1" disallow="pedestrian" speed="13.89" length="9.49" shape="46.41,-27.70 47.51,-30.46 47.95,-32.47 48.03,-34.56 48.04,-37.57"/>
    </edge>
    <edge id=":J12_2" function="internal">
        <lane id=":J12_2_0" index="0" disallow="pedestrian" speed="11.07" length="9.55" shape="46.41,-27.70 47.43,-30.36 48.18,-32.29 49.34,-33.81 51.65,-35.23"/>
        <lane id=":J12_2_1" index="1" disallow="pedestrian" speed="10.42" length="8.41" shape="46.41,-27.70 47.62,-29.73 48.96,-30.75 50.68,-31.40 53.02,-32.34"/>
    </edge>
    <edge id=":J15_0" function="internal">
        <lane id=":J15_0_0" index="0" disallow="pedestrian" speed="9.56" length="17.54" shape="71.59,-58.21 76.14,-54.92 80.29,-53.27 84.03,-53.25 87.38,-54.87"/>
        <lane id=":J15_0_1" index="1" disallow="pedestrian" speed="10.64" length="21.96" shape="69.50,-55.79 75.04,-51.85 80.20,-49.96 84.96,-50.13 89.34,-52.34"/>
    </edge>
    <edge id=":J15_2" function="internal">
        <lane id=":J15_2_0" index="0" disallow="pedestrian" speed="13.89" length="23.35" shape="69.50,-55.79 74.61,-51.89 79.23,-49.57 84.27,-48.13 90.66,-46.91"/>
    </edge>
    <edge id=":J15_3" function="internal">
        <lane id=":J15_3_0" index="0" disallow="pedestrian" speed="13.89" length="20.90" shape="67.40,-51.55 73.27,-50.78 78.56,-51.08 83.26,-52.44 87.38,-54.87"/>
        <lane id=":J15_3_1" index="1" disallow="pedestrian" speed="13.89" length="23.67" shape="66.74,-48.41 73.32,-47.57 79.28,-47.95 84.62,-49.53 89.34,-52.34"/>
    </edge>
    <edge id=":J15_5" function="internal">
        <lane id=":J15_5_0" index="0" disallow="pedestrian" speed="13.89" length="23.81" shape="66.74,-48.41 90.09,-43.76"/>
    </edge>
    <edge id=":J15_6" function="internal">
        <lane id=":J15_6_0" index="0" disallow="pedestrian" speed="13.89" length="22.82" shape="68.30,-43.13 73.98,-45.91 78.26,-48.31 82.33,-51.05 87.38,-54.87"/>
        <lane id=":J15_6_1" index="1" disallow="pedestrian" speed="13.89" length="22.82" shape="69.67,-40.24 75.44,-43.07 79.92,-45.60 84.20,-48.47 89.34,-52.34"/>
    </edge>
    <edge id=":J15_8" function="internal">
        <lane id=":J15_8_0" index="0" disallow="pedestrian" speed="13.89" length="21.30" shape="69.67,-40.24 75.29,-42.85 79.58,-44.27 84.02,-44.57 90.09,-43.76"/>
    </edge>
    <edge id=":J16_0" function="internal">
        <lane id=":J16_0_0" index="0" speed="13.89" length="0.23" shape="70.56,-59.10 70.69,-58.99"/>
        <lane id=":J16_0_1" index="1" speed="13.89" length="0.23" shape="68.38,-56.76 68.60,-56.57"/>
    </edge>
    <edge id=":J18_0" function="internal">
        <lane id=":J18_0_0" index="0" disallow="pedestrian" speed="13.89" length="0.30" shape="8.16,-62.27 8.34,-62.53"/>
        <lane id=":J18_0_1" index="1" disallow="pedestrian" speed="13.89" length="0.30" shape="10.79,-60.45 10.96,-60.69"/>
    </edge>
    <edge id=":J19_0" function="internal">
        <lane id=":J19_0_0" index="0" disallow="pedestrian" speed="13.89" length="9.72" shape="25.84,-75.39 24.04,-77.87 23.02,-79.73 22.36,-81.76 21.67,-84.77"/>
        <lane id=":J19_0_1" index="1" disallow="pedestrian" speed="13.89" length="9.72" shape="28.40,-77.32 26.84,-79.48 25.95,-81.09 25.39,-82.86 24.79,-85.47"/>
    </edge>
    <edge id=":J19_2" function="internal">
        <lane id=":J19_2_0" index="0" disallow="pedestrian" speed="9.25" length="8.41" shape="18.56,-77.13 20.12,-79.57 21.16,-81.65 21.68,-83.39 21.67,-84.77"/>
        <lane id=":J19_2_1" index="1" disallow="pedestrian" speed="10.54" length="11.05" shape="21.18,-75.30 23.08,-78.33 24.32,-81.03 24.89,-83.41 24.79,-85.47"/>
    </edge>
    <edge id=":J22_0" function="internal">
        <lane id=":J22_0_0" index="0" speed="4.35" length="2.20" shape="40.67,-87.40 40.72,-87.08 40.80,-86.87 40.93,-86.68 41.16,-86.46"/>
        <lane id=":J22_0_1" index="1" speed="6.93" length="2.20" shape="37.50,-86.94 37.66,-85.99 37.89,-85.34 38.29,-84.79 38.98,-84.11"/>
    </edge>
    <edge id=":J23_0" function="internal">
        <lane id=":J23_0_0" index="0" disallow="pedestrian" speed="10.47" length="1.12" shape="103.44,-66.22 103.86,-66.50 104.15,-66.67 104.48,-66.79 104.96,-66.92"/>
        <lane id=":J23_0_1" index="1" disallow="pedestrian" speed="13.89" length="1.12" shape="105.27,-63.59 105.41,-63.69 105.51,-63.74 105.62,-63.78 105.78,-63.83"/>
    </edge>
    <edge id=":J25_0" function="internal">
        <lane id=":J25_0_0" index="0" disallow="pedestrian" speed="7.17" length="2.94" shape="100.38,-45.14 101.23,-44.97 101.79,-44.76 102.29,-44.41 102.91,-43.81"/>
        <lane id=":J25_0_1" index="1" disallow="pedestrian" speed="13.89" length="0.98" shape="99.81,-41.99 100.09,-41.94 100.28,-41.87 100.44,-41.75 100.65,-41.55"/>
    </edge>
    <edge id=":J26_0" function="internal">
        <lane id=":J26_0_0" index="0" disallow="pedestrian" speed="13.89" length="9.93" shape="120.43,-33.60 119.32,-31.12 118.47,-29.38 118.03,-27.60 118.19,-24.99"/>
        <lane id=":J26_0_1" index="1" disallow="pedestrian" speed="13.89" length="9.93" shape="117.44,-34.74 116.17,-31.79 115.24,-29.72 114.80,-27.60 115.03,-24.50"/>
    </edge>
    <edge id=":J26_2" function="internal">
        <lane id=":J26_2_0" index="0" disallow="pedestrian" speed="12.22" length="9.35" shape="113.22,-33.77 115.43,-31.63 116.79,-29.95 117.60,-27.97 118.19,-24.99"/>
        <lane id=":J26_2_1" index="1" disallow="pedestrian" speed="10.94" length="9.35" shape="111.02,-31.45 112.79,-29.76 113.88,-28.42 114.55,-26.87 115.03,-24.50"/>
    </edge>
    <edge id=":J27_0" function="internal">
        <lane id=":J27_0_0" index="0" disallow="pedestrian" speed="8.05" length="8.58" shape="120.24,-11.75 120.81,-10.33 122.06,-8.98 124.00,-7.70 126.62,-6.50"/>
        <lane id=":J27_0_1" index="1" disallow="pedestrian" speed="8.91" length="10.65" shape="120.24,-11.75 120.98,-8.76 122.17,-6.36 123.83,-4.55 125.94,-3.33"/>
    </edge>
    <edge id=":J27_2" function="internal">
        <lane id=":J27_2_0" index="0" disallow="pedestrian" speed="13.89" length="11.66" shape="120.24,-11.75 120.93,-8.07 121.34,-5.45 121.10,-2.92 119.87,0.51"/>
        <lane id=":J27_2_1" index="1" disallow="pedestrian" speed="13.89" length="11.66" shape="117.08,-11.26 117.69,-8.11 118.10,-5.88 117.97,-3.72 116.94,-0.79"/>
    </edge>
    <edge id=":J28_0" function="internal">
        <lane id=":J28_0_0" index="0" disallow="pedestrian" speed="8.15" length="1.48" shape="112.58,16.99 112.31,17.58 112.07,17.97 111.77,18.30 111.27,18.73"/>
        <lane id=":J28_0_1" index="1" disallow="pedestrian" speed="13.89" length="1.48" shape="109.65,15.70 109.56,15.89 109.48,16.02 109.38,16.13 109.22,16.28"/>
    </edge>
    <edge id=":J29_0" function="internal">
        <lane id=":J29_0_0" index="0" disallow="pedestrian" speed="13.89" length="11.12" shape="104.78,31.81 101.58,31.22 99.39,30.77 97.20,30.43 93.96,30.15"/>
        <lane id=":J29_0_1" index="1" disallow="pedestrian" speed="13.89" length="11.12" shape="105.31,28.65 102.01,28.05 99.76,27.59 97.49,27.24 94.16,26.95"/>
    </edge>
    <edge id=":J29_2" function="internal">
        <lane id=":J29_2_0" index="0" disallow="pedestrian" speed="11.78" length="10.97" shape="104.21,24.64 101.54,27.13 99.59,28.93 97.38,29.97 93.96,30.15"/>
        <lane id=":J29_2_1" index="1" disallow="pedestrian" speed="10.59" length="10.97" shape="102.16,22.18 100.06,24.23 98.56,25.80 96.87,26.75 94.16,26.95"/>
    </edge>
    <edge id=":J32_0" function="internal">
        <lane id=":J32_0_0" index="0" disallow="pedestrian" speed="13.89" length="1.85" shape="133.68,-52.48 133.41,-52.41 133.24,-52.34 133.09,-52.22 132.90,-52.03"/>
        <lane id=":J32_0_1" index="1" disallow="pedestrian" speed="7.33" length="1.85" shape="132.91,-55.59 132.12,-55.38 131.60,-55.15 131.14,-54.81 130.57,-54.23"/>
    </edge>
    <edge id=":J33_0" function="internal">
        <lane id=":J33_0_0" index="0" disallow="pedestrian" speed="13.89" length="1.28" shape="123.95,-42.57 123.82,-42.43 123.74,-42.32 123.69,-42.21 123.62,-42.03"/>
        <lane id=":J33_0_1" index="1" disallow="pedestrian" speed="9.09" length="1.28" shape="121.63,-44.76 121.24,-44.35 121.01,-44.04 120.83,-43.69 120.62,-43.16"/>
    </edge>
    <edge id=":J38_0" function="internal">
        <lane id=":J38_0_0" index="0" disallow="pedestrian" speed="13.89" length="0.28" shape="154.63,37.41 154.38,37.39"/>
        <lane id=":J38_0_1" index="1" disallow="pedestrian" speed="13.89" length="0.28" shape="154.89,34.22 154.58,34.20"/>
    </edge>
    <edge id=":J39_0" function="internal">
        <lane id=":J39_0_0" index="0" disallow="pedestrian" speed="13.89" length="0.33" shape="129.13,35.81 128.99,35.80 128.89,35.79 128.79,35.78 128.65,35.76"/>
        <lane id=":J39_0_1" index="1" disallow="pedestrian" speed="13.89" length="0.33" shape="129.33,32.62 129.28,32.61 129.25,32.61 129.22,32.61 129.17,32.60"/>
    </edge>
    <edge id=":J44_0" function="internal">
        <lane id=":J44_0_0" index="0" disallow="pedestrian" speed="6.68" length="8.65" shape="93.04,30.09 90.82,30.28 89.09,31.19 87.84,32.80 87.09,35.12"/>
    </edge>
    <edge id=":J44_1" function="internal">
        <lane id=":J44_1_0" index="0" disallow="pedestrian" speed="13.89" length="10.57" shape="93.04,30.09 89.95,29.89 87.83,29.79 85.71,29.78 82.62,29.85"/>
        <lane id=":J44_1_1" index="1" disallow="pedestrian" speed="13.89" length="10.57" shape="93.24,26.89 90.06,26.69 87.89,26.59 85.71,26.58 82.53,26.65"/>
    </edge>
    <edge id=":J45_0" function="internal">
        <lane id=":J45_0_0" index="0" disallow="pedestrian" speed="6.58" length="8.74" shape="76.33,35.39 75.86,33.02 74.78,31.31 73.09,30.28 70.80,29.91"/>
    </edge>
    <edge id=":J45_1" function="internal">
        <lane id=":J45_1_0" index="0" disallow="pedestrian" speed="13.89" length="10.52" shape="81.38,29.88 70.80,29.91"/>
        <lane id=":J45_1_1" index="1" disallow="pedestrian" speed="13.89" length="10.52" shape="81.29,26.68 70.83,26.71"/>
    </edge>
    <edge id=":J46_0" function="internal">
        <lane id=":J46_0_0" index="0" disallow="pedestrian" speed="13.89" length="3.14" shape="81.90,62.04 81.69,62.95 81.51,63.57 81.39,64.19 81.34,65.12"/>
    </edge>
    <edge id=":J46_1" function="internal">
        <lane id=":J46_1_0" index="0" disallow="pedestrian" speed="13.89" length="2.88" shape="78.14,65.10 77.98,62.23"/>
    </edge>
    <edge id=":J48_0" function="internal">
        <lane id=":J48_0_0" index="0" disallow="pedestrian" speed="13.61" length="12.05" shape="45.05,-46.94 44.75,-50.07 43.75,-52.06 42.18,-53.88 40.16,-56.52"/>
        <lane id=":J48_0_1" index="1" disallow="pedestrian" speed="13.89" length="12.05" shape="48.25,-46.87 47.95,-50.57 46.89,-52.95 45.16,-55.14 42.84,-58.27"/>
    </edge>
    <edge id=":J48_2" function="internal">
        <lane id=":J48_2_0" index="0" disallow="pedestrian" speed="5.44" length="6.83" shape="48.25,-46.87 48.51,-49.19 49.18,-50.75 50.25,-51.54 51.73,-51.57"/>
    </edge>
    <edge id=":J5_0" function="internal">
        <lane id=":J5_0_0" index="0" disallow="pedestrian" speed="4.39" length="2.12" shape="-0.91,-49.71 -0.62,-49.81 -0.43,-49.92 -0.27,-50.07 -0.09,-50.32"/>
        <lane id=":J5_0_1" index="1" disallow="pedestrian" speed="7.00" length="2.12" shape="0.07,-46.67 0.95,-46.97 1.53,-47.29 2.00,-47.75 2.55,-48.51"/>
    </edge>
    <edge id=":J50_0" function="internal">
        <lane id=":J50_0_0" index="0" disallow="pedestrian" speed="13.89" length="0.25" shape="139.44,-2.88 139.63,-2.83"/>
        <lane id=":J50_0_1" index="1" disallow="pedestrian" speed="13.89" length="0.25" shape="138.65,0.23 138.95,0.30"/>
    </edge>
    <edge id=":J51_0" function="internal">
        <lane id=":J51_0_0" index="0" disallow="pedestrian" speed="13.89" length="0.29" shape="154.27,0.39 154.32,0.40 154.34,0.40 154.37,0.41 154.42,0.41"/>
        <lane id=":J51_0_1" index="1" disallow="pedestrian" speed="13.89" length="0.29" shape="153.59,3.51 153.71,3.54 153.80,3.56 153.89,3.57 154.02,3.59"/>
    </edge>
    <edge id=":J53_0" function="internal">
        <lane id=":J53_0_0" index="0" disallow="pedestrian" speed="13.89" length="12.16" shape="-34.40,-39.00 -22.85,-42.63"/>
        <lane id=":J53_0_1" index="1" disallow="pedestrian" speed="13.89" length="12.16" shape="-33.53,-35.92 -21.87,-39.58"/>
    </edge>
    <edge id=":J53_2" function="internal">
        <lane id=":J53_2_0" index="0" disallow="pedestrian" speed="8.34" length="10.79" shape="-33.53,-35.92 -30.26,-36.56 -27.50,-36.48 -25.25,-35.68 -23.50,-34.16"/>
        <lane id=":J53_2_1" index="1" disallow="pedestrian" speed="7.62" length="8.91" shape="-33.53,-35.92 -31.67,-36.08 -29.80,-35.51 -27.91,-34.20 -26.00,-32.17"/>
    </edge>
    <edge id=":J54_0" function="internal">
        <lane id=":J54_0_0" index="0" disallow="pedestrian" speed="13.89" length="0.30" shape="64.11,-41.14 64.38,-41.27"/>
        <lane id=":J54_0_1" index="1" disallow="pedestrian" speed="13.89" length="0.30" shape="65.48,-38.25 65.75,-38.38"/>
    </edge>
    <edge id=":J55_0" function="internal">
        <lane id=":J55_0_0" index="0" disallow="pedestrian" speed="6.78" length="2.40" shape="41.46,13.81 40.61,13.18 40.10,12.64 39.78,11.96 39.51,10.94"/>
        <lane id=":J55_0_1" index="1" disallow="pedestrian" speed="4.27" length="2.40" shape="43.28,11.18 43.00,10.97 42.83,10.79 42.72,10.56 42.63,10.22"/>
    </edge>
    <edge id=":J56_0" function="internal">
        <lane id=":J56_0_0" index="0" disallow="pedestrian" speed="7.02" length="2.10" shape="35.14,-8.01 34.96,-8.92 34.93,-9.57 35.08,-10.20 35.44,-11.05"/>
        <lane id=":J56_0_1" index="1" disallow="pedestrian" speed="4.40" length="2.10" shape="38.26,-8.73 38.20,-9.03 38.19,-9.25 38.24,-9.46 38.36,-9.74"/>
    </edge>
    <edge id=":J57_0" function="internal">
        <lane id=":J57_0_0" index="0" disallow="pedestrian" speed="13.89" length="0.46" shape="-2.18,-7.45 -2.05,-7.30 -1.97,-7.18 -1.89,-7.07 -1.79,-6.89"/>
        <lane id=":J57_0_1" index="1" disallow="pedestrian" speed="13.89" length="0.46" shape="-4.68,-5.46 -4.64,-5.41 -4.61,-5.37 -4.58,-5.33 -4.55,-5.27"/>
    </edge>
    <edge id=":J8_0" function="internal">
        <lane id=":J8_0_0" index="0" disallow="pedestrian" speed="13.89" length="15.56" shape="21.81,28.49 6.33,28.21"/>
        <lane id=":J8_0_1" index="1" disallow="pedestrian" speed="13.89" length="15.56" shape="21.91,25.29 6.28,25.01"/>
    </edge>
    <edge id=":J8_2" function="internal">
        <lane id=":J8_2_0" index="0" disallow="pedestrian" speed="7.43" length="16.84" shape="12.51,17.46 14.45,22.09 14.06,25.42 11.36,27.46 6.33,28.21"/>
        <lane id=":J8_2_1" index="1" disallow="pedestrian" speed="5.70" length="9.33" shape="9.75,19.08 10.82,21.63 10.59,23.47 9.08,24.59 6.28,25.01"/>
    </edge>

    <edge id="-E67" from="J47" to="J46" priority="-1" weight="1000">
        <lane id="-E67_0" index="0" disallow="pedestrian" speed="13.89" length="26.09" shape="78.04,91.19 78.14,65.10"/>
        </edge>
    <edge id="E0" from="J21" to="J22" priority="-1">
        <lane id="E0_0" index="0" speed="13.89" length="37.80" shape="35.26,-124.81 40.67,-87.40"/>
        <lane id="E0_1" index="1" speed="13.89" length="37.80" shape="32.09,-124.35 37.50,-86.94"/>
    </edge>
    <edge id="E1" from="J22" to="J16" priority="-1">
        <lane id="E1_0" index="0" speed="13.89" length="40.16" shape="41.16,-86.46 70.56,-59.10"/>
        <lane id="E1_1" index="1" speed="13.89" length="40.16" shape="38.98,-84.11 68.38,-56.76"/>
    </edge>
    <edge id="E14" from="J4" to="J53" priority="-1" shape="-88.45,-19.16 -39.65,-32.56 -35.14,-33.80 -30.42,-35.14">
        <lane id="E14_0" index="0" disallow="pedestrian" speed="13.89" length="57.39" shape="-89.72,-23.79 -40.92,-37.19 -36.43,-38.42 -34.40,-39.00"/>
        <lane id="E14_1" index="1" disallow="pedestrian" speed="13.89" length="57.39" shape="-88.87,-20.70 -40.07,-34.10 -35.57,-35.34 -33.53,-35.92"/>
    </edge>
    <edge id="E14.56" from="J53" to="J5" priority="-1">
        <lane id="E14.56_0" index="0" disallow="pedestrian" speed="13.89" length="23.06" shape="-22.85,-42.63 -0.91,-49.71"/>
        <lane id="E14.56_1" index="1" disallow="pedestrian" speed="13.89" length="23.06" shape="-21.87,-39.58 0.07,-46.67"/>
    </edge>
    <edge id="E15" from="J8" to="J9" priority="-1" shape="10.40,23.34 -11.30,23.69 -88.21,24.89" weight="0.01">
        <lane id="E15_0" index="0" disallow="pedestrian" speed="13.89" length="94.47" shape="6.33,28.21 -11.22,28.49 -88.14,29.69"/>
        <lane id="E15_1" index="1" disallow="pedestrian" speed="13.89" length="94.47" shape="6.28,25.01 -11.27,25.29 -88.19,26.49"/>
        </edge>
    <edge id="E17" from="J11" to="J8" priority="-1" shape="66.17,25.06 34.52,24.08 24.53,23.77 10.40,23.34">
        <lane id="E17_0" index="0" disallow="pedestrian" speed="13.89" length="30.95" shape="52.74,29.45 34.37,28.88 24.38,28.57 21.81,28.49"/>
        <lane id="E17_1" index="1" disallow="pedestrian" speed="13.89" length="30.95" shape="52.84,26.25 34.47,25.68 24.48,25.37 21.91,25.29"/>
    </edge>
    <edge id="E2" from="J16" to="J15" priority="-1">
        <lane id="E2_0" index="0" speed="13.89" length="1.19" shape="70.69,-58.99 71.59,-58.21"/>
        <lane id="E2_1" index="1" speed="13.89" length="1.19" shape="68.60,-56.57 69.50,-55.79"/>
    </edge>
    <edge id="E25" from="J5" to="J18" priority="-1">
        <lane id="E25_0" index="0" disallow="pedestrian" speed="13.89" length="14.52" shape="-0.09,-50.32 8.16,-62.27"/>
        <lane id="E25_1" index="1" disallow="pedestrian" speed="13.89" length="14.52" shape="2.55,-48.51 10.79,-60.45"/>
    </edge>
    <edge id="E26" from="J18" to="J19" priority="-1">
        <lane id="E26_0" index="0" disallow="pedestrian" speed="13.89" length="17.83" shape="8.34,-62.53 18.56,-77.13"/>
        <lane id="E26_1" index="1" disallow="pedestrian" speed="13.89" length="17.83" shape="10.96,-60.69 21.18,-75.30"/>
    </edge>
    <edge id="E32" from="J15" to="J23" priority="-1" shape="80.92,-43.80 92.05,-52.41 106.19,-62.28">
        <lane id="E32_0" index="0" disallow="pedestrian" speed="13.89" length="19.59" shape="87.38,-54.87 89.21,-56.28 103.44,-66.22"/>
        <lane id="E32_1" index="1" disallow="pedestrian" speed="13.89" length="19.59" shape="89.34,-52.34 91.10,-53.70 105.27,-63.59"/>
    </edge>
    <edge id="E33" from="J23" to="J24" priority="-1">
        <lane id="E33_0" index="0" disallow="pedestrian" speed="13.89" length="53.61" shape="104.96,-66.92 156.78,-80.67"/>
        <lane id="E33_1" index="1" disallow="pedestrian" speed="13.89" length="53.61" shape="105.78,-63.83 157.60,-77.58"/>
    </edge>
    <edge id="E34" from="J15" to="J25" priority="-1" shape="80.92,-43.80 104.13,-38.89 99.52,-40.42">
        <lane id="E34_0" index="0" disallow="pedestrian" speed="13.89" length="9.87" shape="90.66,-46.91 100.38,-45.14"/>
        <lane id="E34_1" index="1" disallow="pedestrian" speed="13.89" length="9.87" shape="90.09,-43.76 99.81,-41.99"/>
    </edge>
    <edge id="E35" from="J25" to="J26" priority="-1" shape="99.52,-40.42 104.54,-35.40 112.96,-27.40">
        <lane id="E35_0" index="0" disallow="pedestrian" speed="13.89" length="14.44" shape="102.91,-43.81 107.89,-38.84 113.22,-33.77"/>
        <lane id="E35_1" index="1" disallow="pedestrian" speed="13.89" length="14.44" shape="100.65,-41.55 105.66,-36.55 111.02,-31.45"/>
    </edge>
    <edge id="E36" from="J26" to="J27" priority="-1">
        <lane id="E36_0" index="0" disallow="pedestrian" speed="13.89" length="13.39" shape="118.19,-24.99 120.24,-11.75"/>
        <lane id="E36_1" index="1" disallow="pedestrian" speed="13.89" length="13.39" shape="115.03,-24.50 117.08,-11.26"/>
    </edge>
    <edge id="E37" from="J27" to="J28" priority="-1">
        <lane id="E37_0" index="0" disallow="pedestrian" speed="13.89" length="18.02" shape="119.87,0.51 112.58,16.99"/>
        <lane id="E37_1" index="1" disallow="pedestrian" speed="13.89" length="18.02" shape="116.94,-0.79 109.65,15.70"/>
    </edge>
    <edge id="E38" from="J28" to="J29" priority="-1">
        <lane id="E38_0" index="0" disallow="pedestrian" speed="13.89" length="9.20" shape="111.27,18.73 104.21,24.64"/>
        <lane id="E38_1" index="1" disallow="pedestrian" speed="13.89" length="9.20" shape="109.22,16.28 102.16,22.18"/>
    </edge>
    <edge id="E41" from="J31" to="J32" priority="-1">
        <lane id="E41_0" index="0" disallow="pedestrian" speed="13.89" length="28.56" shape="161.40,-59.34 133.68,-52.48"/>
        <lane id="E41_1" index="1" disallow="pedestrian" speed="13.89" length="28.56" shape="160.63,-62.45 132.91,-55.59"/>
    </edge>
    <edge id="E42" from="J32" to="J33" priority="-1">
        <lane id="E42_0" index="0" disallow="pedestrian" speed="13.89" length="13.02" shape="132.90,-52.03 123.95,-42.57"/>
        <lane id="E42_1" index="1" disallow="pedestrian" speed="13.89" length="13.02" shape="130.57,-54.23 121.63,-44.76"/>
    </edge>
    <edge id="E43" from="J33" to="J26" priority="-1">
        <lane id="E43_0" index="0" disallow="pedestrian" speed="13.89" length="9.01" shape="123.62,-42.03 120.43,-33.60"/>
        <lane id="E43_1" index="1" disallow="pedestrian" speed="13.89" length="9.01" shape="120.62,-43.16 117.44,-34.74"/>
    </edge>
    <edge id="E47" from="J37" to="J38" priority="-1">
        <lane id="E47_0" index="0" disallow="pedestrian" speed="13.89" length="23.43" shape="177.98,39.30 154.63,37.41"/>
        <lane id="E47_1" index="1" disallow="pedestrian" speed="13.89" length="23.43" shape="178.24,36.11 154.89,34.22"/>
    </edge>
    <edge id="E48" from="J38" to="J39" priority="-1">
        <lane id="E48_0" index="0" disallow="pedestrian" speed="13.89" length="25.30" shape="154.38,37.39 129.13,35.81"/>
        <lane id="E48_1" index="1" disallow="pedestrian" speed="13.89" length="25.30" shape="154.58,34.20 129.33,32.62"/>
    </edge>
    <edge id="E49" from="J39" to="J29" priority="-1" shape="129.43,31.02 121.64,29.73 95.76,25.45">
        <lane id="E49_0" index="0" disallow="pedestrian" speed="13.89" length="24.19" shape="128.65,35.76 120.86,34.47 104.78,31.81"/>
        <lane id="E49_1" index="1" disallow="pedestrian" speed="13.89" length="24.19" shape="129.17,32.60 121.38,31.31 105.31,28.65"/>
    </edge>
    <edge id="E53" from="J29" to="J44" priority="-1">
        <lane id="E53_0" index="0" disallow="pedestrian" speed="13.89" length="0.92" shape="93.96,30.15 93.04,30.09"/>
        <lane id="E53_1" index="1" disallow="pedestrian" speed="13.89" length="0.92" shape="94.16,26.95 93.24,26.89"/>
    </edge>
    <edge id="E54" from="J44" to="J45" priority="-1">
        <lane id="E54_0" index="0" disallow="pedestrian" speed="13.89" length="1.24" shape="82.62,29.85 81.38,29.88"/>
        <lane id="E54_1" index="1" disallow="pedestrian" speed="13.89" length="1.24" shape="82.53,26.65 81.29,26.68"/>
    </edge>
    <edge id="E55" from="J45" to="J11" priority="-1">
        <lane id="E55_0" index="0" disallow="pedestrian" speed="13.89" length="3.18" shape="70.80,29.91 67.61,29.88"/>
        <lane id="E55_1" index="1" disallow="pedestrian" speed="13.89" length="3.18" shape="70.83,26.71 67.65,26.68"/>
    </edge>
    <edge id="E59" from="J12" to="J48" priority="-1" shape="49.44,-28.65 49.93,-50.31">
        <lane id="E59_0" index="0" disallow="pedestrian" speed="13.89" length="9.31" shape="44.84,-37.64 45.05,-46.94"/>
        <lane id="E59_1" index="1" disallow="pedestrian" speed="13.89" length="9.31" shape="48.04,-37.57 48.25,-46.87"/>
    </edge>
    <edge id="E62" from="J48" to="J15" priority="-1">
        <lane id="E62_0" index="0" disallow="pedestrian" speed="13.89" length="15.34" shape="52.38,-54.70 67.40,-51.55"/>
        <lane id="E62_1" index="1" disallow="pedestrian" speed="13.89" length="15.34" shape="51.73,-51.57 66.74,-48.41"/>
    </edge>
    <edge id="E63" from="J48" to="J19" priority="-1" shape="49.93,-50.31 42.59,-61.59 37.72,-67.64 27.36,-81.34">
        <lane id="E63_0" index="0" disallow="pedestrian" speed="13.89" length="23.80" shape="40.16,-56.52 38.70,-58.77 33.94,-64.69 25.84,-75.39"/>
        <lane id="E63_1" index="1" disallow="pedestrian" speed="13.89" length="23.80" shape="42.84,-58.27 41.29,-60.65 36.46,-66.66 28.40,-77.32"/>
    </edge>
    <edge id="E64" from="J19" to="J20" priority="-1">
        <lane id="E64_0" index="0" disallow="pedestrian" speed="13.89" length="35.36" shape="21.67,-84.77 13.93,-119.27"/>
        <lane id="E64_1" index="1" disallow="pedestrian" speed="13.89" length="35.36" shape="24.79,-85.47 17.05,-119.97"/>
    </edge>
    <edge id="E65" from="J44" to="J46" priority="-1" weight="1000">
        <lane id="E65_0" index="0" disallow="pedestrian" speed="13.89" length="27.41" shape="87.09,35.12 81.90,62.04"/>
        </edge>
    <edge id="E66" from="J46" to="J45" priority="-1" weight="1000">
        <lane id="E66_0" index="0" disallow="pedestrian" speed="13.89" length="26.89" shape="77.98,62.23 76.33,35.39"/>
        </edge>
    <edge id="E67" from="J46" to="J47" priority="-1" weight="1000">
        <lane id="E67_0" index="0" disallow="pedestrian" speed="13.89" length="26.09" shape="81.34,65.12 81.24,91.21"/>
        </edge>
    <edge id="E68" from="J27" to="J50" priority="-1" shape="116.59,-3.95 124.14,-2.32 127.86,-0.86 138.43,1.82">
        <lane id="E68_0" index="0" disallow="pedestrian" speed="13.89" length="13.28" shape="126.62,-6.50 129.33,-5.44 139.44,-2.88"/>
        <lane id="E68_1" index="1" disallow="pedestrian" speed="13.89" length="13.28" shape="125.94,-3.33 128.35,-2.39 138.65,0.23"/>
    </edge>
    <edge id="E69" from="J50" to="J51" priority="-1">
        <lane id="E69_0" index="0" disallow="pedestrian" speed="13.89" length="14.99" shape="139.63,-2.83 154.27,0.39"/>
        <lane id="E69_1" index="1" disallow="pedestrian" speed="13.89" length="14.99" shape="138.95,0.30 153.59,3.51"/>
    </edge>
    <edge id="E70" from="J51" to="J52" priority="-1">
        <lane id="E70_0" index="0" disallow="pedestrian" speed="13.89" length="24.70" shape="154.42,0.41 178.93,3.48"/>
        <lane id="E70_1" index="1" disallow="pedestrian" speed="13.89" length="24.70" shape="154.02,3.59 178.53,6.65"/>
    </edge>
    <edge id="E71" from="J12" to="J54" priority="-1" shape="48.48,-28.41 59.54,-33.66 66.30,-36.87">
        <lane id="E71_0" index="0" disallow="pedestrian" speed="13.89" length="13.79" shape="51.65,-35.23 57.48,-38.00 64.11,-41.14"/>
        <lane id="E71_1" index="1" disallow="pedestrian" speed="13.89" length="13.79" shape="53.02,-32.34 58.85,-35.11 65.48,-38.25"/>
    </edge>
    <edge id="E71.19" from="J54" to="J15" priority="0">
        <lane id="E71.19_0" index="0" disallow="pedestrian" speed="13.89" length="4.33" shape="64.38,-41.27 68.30,-43.13"/>
        <lane id="E71.19_1" index="1" disallow="pedestrian" speed="13.89" length="4.33" shape="65.75,-38.38 69.67,-40.24"/>
    </edge>
    <edge id="E73" from="J11" to="J55" priority="-1" weight="500">
        <lane id="E73_0" index="0" disallow="pedestrian" speed="13.89" length="15.33" shape="54.07,22.53 41.46,13.81"/>
        <lane id="E73_1" index="1" disallow="pedestrian" speed="13.89" length="15.33" shape="55.89,19.89 43.28,11.18"/>
        </edge>
    <edge id="E74" from="J55" to="J56" priority="-1">
        <lane id="E74_0" index="0" disallow="pedestrian" speed="13.89" length="19.45" shape="39.51,10.94 35.14,-8.01"/>
        <lane id="E74_1" index="1" disallow="pedestrian" speed="13.89" length="19.45" shape="42.63,10.22 38.26,-8.73"/>
    </edge>
    <edge id="E75" from="J56" to="J12" priority="-1" weight="1000">
        <lane id="E75_0" index="0" disallow="pedestrian" speed="13.89" length="19.67" shape="35.44,-11.05 43.49,-29.00"/>